<?xml version="1.0" encoding="UTF-8"?>
<!DOCTYPE network SYSTEM "http://www.matsim.org/files/dtd/network_v2.dtd">
<network name="square test network">

	<attributes>
		<attribute name="coordinateReferenceSystem" class="java.lang.String" >Atlantis</attribute>
	</attributes>
<!-- ====================================================================== -->

	<nodes>
		<node id="1" x="-2000.0" y="-2000.0" >
		</node>
		<node id="2" x="2000.0" y="-2000.0" >
		</node>
		<node id="3" x="-2000.0" y="2000.0" >
		</node>
		<node id="4" x="2000.0" y="2000.0" >
		</node>
		<node id="5" x="0.0" y="0.0" >
		</node>
	</nodes>

<!-- ====================================================================== -->

	<links capperiod="01:00:00" effectivecellsize="7.5" effectivelanewidth="3.75">
		<link id="1" from="1" to="2" length="10000.0" freespeed="27.78" capacity="36000.0" permlanes="1.0" oneway="1" modes="car" >
		</link>
		<link id="2" from="2" to="4" length="10000.0" freespeed="27.78" capacity="36000.0" permlanes="1.0" oneway="1" modes="car" >
		</link>
		<link id="3" from="4" to="3" length="10000.0" freespeed="27.78" capacity="36000.0" permlanes="1.0" oneway="1" modes="car" >
		</link>
		<link id="4" from="3" to="1" length="10000.0" freespeed="27.78" capacity="36000.0" permlanes="1.0" oneway="1" modes="car" >
		</link>
		<link id="5" from="1" to="5" length="5000.0" freespeed="27.78" capacity="18000.0" permlanes="1.0" oneway="1" modes="car" >
		</link>
		<link id="6" from="5" to="3" length="5000.0" freespeed="27.78" capacity="18000.0" permlanes="2.0" oneway="1" modes="car" >
		</link>
		<link id="7" from="5" to="4" length="5000.0" freespeed="27.78" capacity="18000.0" permlanes="1.0" oneway="1" modes="car" >
		</link>
		<link id="8" from="3" to="5" length="5000.0" freespeed="27.78" capacity="18000.0" permlanes="2.0" oneway="1" modes="car" >
		</link>
	</links>

<!-- ====================================================================== -->

</network>
