<?xml version="1.0" encoding="UTF-8"?>
<!DOCTYPE network SYSTEM "http://www.matsim.org/files/dtd/network_v2.dtd">
<network>

<!-- ====================================================================== -->

	<nodes>
		<node id="1" x="-181145.43176173905" y="6128048.051469692" >
		</node>
		<node id="10" x="-181800.92545132615" y="6126890.586841108" >
		</node>
		<node id="100" x="-181677.93967789775" y="6127715.206208816" >
		</node>
		<node id="1000" x="-181458.61801713685" y="6127041.550169089" >
		</node>
		<node id="1001" x="-181441.02953759153" y="6127085.657376514" >
		</node>
		<node id="1002" x="-181446.5064565385" y="6127049.904673741" >
		</node>
		<node id="1003" x="-181450.82565278132" y="6127068.59811586" >
		</node>
		<node id="1004" x="-181597.96775571184" y="6127174.189314946" >
		</node>
		<node id="1005" x="-181531.0647417451" y="6127173.305491861" >
		</node>
		<node id="1006" x="-181504.8935294596" y="6127163.033139712" >
		</node>
		<node id="1007" x="-181506.04012021478" y="6127152.794151614" >
		</node>
		<node id="1008" x="-181529.6287203139" y="6127170.387208752" >
		</node>
		<node id="1009" x="-181598.01228350817" y="6127172.688483354" >
		</node>
		<node id="101" x="-181750.21942326985" y="6127653.801857312" >
		</node>
		<node id="1010" x="-180497.38534608603" y="6127423.0808585845" >
		</node>
		<node id="1011" x="-180710.2504763809" y="6127403.43609063" >
		</node>
		<node id="1012" x="-180899.76077750738" y="6127364.180042439" >
		</node>
		<node id="1013" x="-180898.8813535301" y="6127346.753349728" >
		</node>
		<node id="1014" x="-181350.42660403487" y="6127095.412687468" >
		</node>
		<node id="1015" x="-181184.07075699337" y="6126995.992414811" >
		</node>
		<node id="1016" x="-181184.96131291974" y="6127008.248961043" >
		</node>
		<node id="1017" x="-181523.50614832024" y="6126680.413232447" >
		</node>
		<node id="1018" x="-181491.79122539324" y="6126776.494815183" >
		</node>
		<node id="1019" x="-181495.34231714954" y="6126710.344814387" >
		</node>
		<node id="102" x="-181697.5653041246" y="6127737.770167211" >
		</node>
		<node id="1020" x="-182405.64632116244" y="6128031.473942022" >
		</node>
		<node id="1021" x="-182418.14749997854" y="6128037.411161525" >
		</node>
		<node id="1022" x="-181593.24780930224" y="6127335.630302201" >
		</node>
		<node id="1023" x="-181558.11537800787" y="6127334.829843567" >
		</node>
		<node id="1024" x="-180708.63634376443" y="6127393.113433506" >
		</node>
		<node id="1025" x="-181283.25642329018" y="6126633.856907267" >
		</node>
		<node id="1026" x="-181186.18582731846" y="6127227.685795062" >
		</node>
		<node id="1027" x="-181149.53945094932" y="6127170.1870979415" >
		</node>
		<node id="1028" x="-182266.26318674022" y="6128087.494106673" >
		</node>
		<node id="1029" x="-181695.48362964677" y="6126448.384488897" >
		</node>
		<node id="103" x="-181726.2189410548" y="6127757.065484025" >
		</node>
		<node id="1030" x="-181721.4210710016" y="6126373.482983697" >
		</node>
		<node id="1031" x="-183164.96769981246" y="6127364.86376986" >
		</node>
		<node id="1032" x="-183064.85808174207" y="6127295.724195075" >
		</node>
		<node id="1033" x="-183200.122395005" y="6127366.698160774" >
		</node>
		<node id="1034" x="-183240.62042575557" y="6127340.633170365" >
		</node>
		<node id="1035" x="-180544.28424755723" y="6127183.094254481" >
		</node>
		<node id="1036" x="-180620.09282078742" y="6127087.158192862" >
		</node>
		<node id="1037" x="-180521.20771711576" y="6126851.216416084" >
		</node>
		<node id="1038" x="-180540.97805868066" y="6126850.449353267" >
		</node>
		<node id="1039" x="-180663.54081804404" y="6126915.549885398" >
		</node>
		<node id="104" x="-181707.22783592547" y="6127731.48293854" >
		</node>
		<node id="1040" x="-180567.6168128275" y="6126939.745931627" >
		</node>
		<node id="1041" x="-180639.47354413455" y="6126975.464823599" >
		</node>
		<node id="1042" x="-180545.9540399191" y="6126936.0106312595" >
		</node>
		<node id="1043" x="-180852.55018146193" y="6126869.125684833" >
		</node>
		<node id="1044" x="-180998.70154092443" y="6126475.113746477" >
		</node>
		<node id="1045" x="-181221.89711996494" y="6126353.773925308" >
		</node>
		<node id="1046" x="-182531.35942211535" y="6125869.198800938" >
		</node>
		<node id="1047" x="-181281.18588076142" y="6127675.014826319" >
		</node>
		<node id="1048" x="-181393.4293233283" y="6127824.274230267" >
		</node>
		<node id="1049" x="-181372.45673126285" y="6127814.634829302" >
		</node>
		<node id="105" x="-181650.5884790099" y="6127066.346896318" >
		</node>
		<node id="1050" x="-181316.61887468098" y="6127800.392550857" >
		</node>
		<node id="1051" x="-181380.1823039239" y="6127852.758890265" >
		</node>
		<node id="1052" x="-181503.19034125045" y="6127073.9676937545" >
		</node>
		<node id="1053" x="-182158.11630143455" y="6127624.03374647" >
		</node>
		<node id="1054" x="-182275.21327379998" y="6127930.425098444" >
		</node>
		<node id="1055" x="-182338.94368227915" y="6127957.509206951" >
		</node>
		<node id="1056" x="-182312.96171312797" y="6128016.030519551" >
		</node>
		<node id="1057" x="-182292.00025301162" y="6128080.406092983" >
		</node>
		<node id="1058" x="-182262.08870583546" y="6127974.3534309305" >
		</node>
		<node id="1059" x="-181947.76699163156" y="6127051.839051227" >
		</node>
		<node id="106" x="-181598.25718638793" y="6127083.206043715" >
		</node>
		<node id="1060" x="-182058.88610734142" y="6127163.349981561" >
		</node>
		<node id="1061" x="-181990.36896075815" y="6127189.898034744" >
		</node>
		<node id="1062" x="-181938.77237677548" y="6127210.576223623" >
		</node>
		<node id="1063" x="-181867.4722429224" y="6127083.172692255" >
		</node>
		<node id="1064" x="-181112.447796617" y="6128082.740967433" >
		</node>
		<node id="1065" x="-180761.16801146977" y="6128035.22639769" >
		</node>
		<node id="1066" x="-180765.37588822172" y="6128003.322238145" >
		</node>
		<node id="1067" x="-181221.86372411772" y="6127694.927047853" >
		</node>
		<node id="1068" x="-181943.4143995416" y="6127457.400943296" >
		</node>
		<node id="1069" x="-181169.08715353263" y="6127697.078371041" >
		</node>
		<node id="107" x="-181501.00847923092" y="6127174.089259496" >
		</node>
		<node id="1070" x="-181601.88620178777" y="6126885.617586465" >
		</node>
		<node id="1071" x="-181608.5987670826" y="6126863.472755178" >
		</node>
		<node id="1072" x="-181599.14774231426" y="6126871.126722772" >
		</node>
		<node id="1073" x="-181624.22802359" y="6126878.247086564" >
		</node>
		<node id="1074" x="-181468.98186172973" y="6126813.797170942" >
		</node>
		<node id="1075" x="-180933.12322889813" y="6126013.641405421" >
		</node>
		<node id="1076" x="-180943.30896230572" y="6126005.821467563" >
		</node>
		<node id="1077" x="-180549.75003455515" y="6125907.530959688" >
		</node>
		<node id="1078" x="-180627.31745573992" y="6125870.1825297065" >
		</node>
		<node id="1079" x="-180674.4389961927" y="6125950.165058456" >
		</node>
		<node id="108" x="-181568.51261844797" y="6127065.67986842" >
		</node>
		<node id="1080" x="-180652.0415146451" y="6125958.90199031" >
		</node>
		<node id="1081" x="-183559.15001671144" y="6126387.389402431" >
		</node>
		<node id="1082" x="-183523.39419626867" y="6126446.283502757" >
		</node>
		<node id="1083" x="-181364.5085196202" y="6128024.602783013" >
		</node>
		<node id="1084" x="-181459.2302743362" y="6127969.516967188" >
		</node>
		<node id="1085" x="-180785.3800007173" y="6128054.989358004" >
		</node>
		<node id="1086" x="-182400.16940221543" y="6125885.155228959" >
		</node>
		<node id="1087" x="-182523.81196063952" y="6125756.004053488" >
		</node>
		<node id="1088" x="-181289.52371062187" y="6128047.767950339" >
		</node>
		<node id="1089" x="-181371.33240440584" y="6128012.127974434" >
		</node>
		<node id="109" x="-180952.60413978694" y="6128194.265319002" >
		</node>
		<node id="1090" x="-181705.36880042922" y="6126144.797333167" >
		</node>
		<node id="1091" x="-181691.9214059414" y="6126137.01062337" >
		</node>
		<node id="1092" x="-181709.82158006096" y="6126135.593342902" >
		</node>
		<node id="1093" x="-181699.92527732943" y="6126145.914484829" >
		</node>
		<node id="1094" x="-182617.0309022298" y="6126477.931745425" >
		</node>
		<node id="1095" x="-182480.94282473504" y="6125946.046698636" >
		</node>
		<node id="1096" x="-182438.50783484467" y="6125963.103724066" >
		</node>
		<node id="1097" x="-182543.5377744081" y="6126235.237067792" >
		</node>
		<node id="1098" x="-182517.80070813673" y="6126167.757330242" >
		</node>
		<node id="1099" x="-182507.61497472908" y="6126141.462552943" >
		</node>
		<node id="11" x="-181898.5303808537" y="6127163.016463826" >
		</node>
		<node id="110" x="-180921.30109897588" y="6128074.318744734" >
		</node>
		<node id="1100" x="-182585.87257675678" y="6126218.079456258" >
		</node>
		<node id="1101" x="-182331.5298041923" y="6126408.682607717" >
		</node>
		<node id="1102" x="-182396.55151876464" y="6126365.779437707" >
		</node>
		<node id="1103" x="-181876.95666353795" y="6126314.322596091" >
		</node>
		<node id="1104" x="-182672.33442525592" y="6126654.51707908" >
		</node>
		<node id="1105" x="-180432.85343727315" y="6126460.890369457" >
		</node>
		<node id="1106" x="-182525.23685012167" y="6125928.639564005" >
		</node>
		<node id="1107" x="-182655.83687672034" y="6126171.342230036" >
		</node>
		<node id="1108" x="-182315.57772116162" y="6126011.073663847" >
		</node>
		<node id="1109" x="-180412.02556054576" y="6127980.7909351755" >
		</node>
		<node id="111" x="-181103.20827888118" y="6127938.86385706" >
		</node>
		<node id="1110" x="-180405.1014882184" y="6128023.285255584" >
		</node>
		<node id="1111" x="-180502.717549695" y="6127989.730068269" >
		</node>
		<node id="1112" x="-180479.91931798053" y="6127964.313602353" >
		</node>
		<node id="1113" x="-180383.85059742598" y="6127396.698846121" >
		</node>
		<node id="1114" x="-180382.94890955053" y="6127432.919935866" >
		</node>
		<node id="1115" x="-181226.04933697154" y="6127646.280604973" >
		</node>
		<node id="1116" x="-181200.11189561672" y="6127648.0817024885" >
		</node>
		<node id="1117" x="-181193.90026803044" y="6127665.025379176" >
		</node>
		<node id="1118" x="-181198.55342274558" y="6127643.278776616" >
		</node>
		<node id="1119" x="-181150.11831230143" y="6127596.66718793" >
		</node>
		<node id="112" x="-181146.51156079973" y="6128111.52668616" >
		</node>
		<node id="1120" x="-181172.14843952944" y="6127641.010729219" >
		</node>
		<node id="1121" x="-181140.60049583862" y="6127670.678837817" >
		</node>
		<node id="1122" x="-181125.1493505165" y="6128068.464887892" >
		</node>
		<node id="1123" x="-181170.94618902885" y="6127348.104125599" >
		</node>
		<node id="1124" x="-181205.8671132907" y="6126307.919692505" >
		</node>
		<node id="1125" x="-181237.78241130116" y="6126267.101294662" >
		</node>
		<node id="1126" x="-181246.7992900554" y="6126258.964317035" >
		</node>
		<node id="1127" x="-181302.79299392443" y="6126236.404253499" >
		</node>
		<node id="1128" x="-180603.7399875899" y="6125861.278954808" >
		</node>
		<node id="1129" x="-183669.67913912007" y="6126980.36742824" >
		</node>
		<node id="113" x="-183266.52447126314" y="6125637.47546647" >
		</node>
		<node id="1130" x="-183712.21431655218" y="6127054.440456124" >
		</node>
		<node id="1131" x="-183149.47202669404" y="6127263.339183358" >
		</node>
		<node id="1132" x="-183325.5238013836" y="6127356.275490349" >
		</node>
		<node id="1133" x="-183511.07112863782" y="6127154.478414289" >
		</node>
		<node id="1134" x="-181762.4200394608" y="6125779.96340022" >
		</node>
		<node id="1135" x="-181761.36250429827" y="6125765.874562606" >
		</node>
		<node id="1136" x="-181721.9554045574" y="6125800.80491847" >
		</node>
		<node id="1137" x="-181720.7308901587" y="6125779.146413733" >
		</node>
		<node id="1138" x="-182733.97202730816" y="6127914.097958641" >
		</node>
		<node id="1139" x="-182824.07402315622" y="6127838.733352046" >
		</node>
		<node id="114" x="-180712.58818568755" y="6128209.358826431" >
		</node>
		<node id="1140" x="-182771.77612638156" y="6127930.008163947" >
		</node>
		<node id="1141" x="-182745.68283773962" y="6127944.901076819" >
		</node>
		<node id="1142" x="-182535.21107649675" y="6127882.511118708" >
		</node>
		<node id="1143" x="-182579.67208111958" y="6127947.619494841" >
		</node>
		<node id="1144" x="-182539.45234909595" y="6128101.436663656" >
		</node>
		<node id="1145" x="-182503.65200085688" y="6127893.6181990905" >
		</node>
		<node id="1146" x="-182379.30812964076" y="6127881.360385977" >
		</node>
		<node id="1147" x="-182402.70748660553" y="6127863.815900317" >
		</node>
		<node id="1148" x="-182386.44370900062" y="6127838.066263992" >
		</node>
		<node id="1149" x="-182522.67650183343" y="6127937.196117541" >
		</node>
		<node id="115" x="-181873.04934941113" y="6126304.201341839" >
		</node>
		<node id="1150" x="-182474.27478723653" y="6127927.406493135" >
		</node>
		<node id="1151" x="-182478.87228220626" y="6127936.228828771" >
		</node>
		<node id="1152" x="-182343.67476063783" y="6127815.0851125" >
		</node>
		<node id="1153" x="-182354.6731263282" y="6127787.417755738" >
		</node>
		<node id="1154" x="-182362.83284500334" y="6127800.425905107" >
		</node>
		<node id="1155" x="-182375.72364203722" y="6127820.972150516" >
		</node>
		<node id="1156" x="-182364.0684913512" y="6127853.192498232" >
		</node>
		<node id="1157" x="-182353.49313972582" y="6127836.882182845" >
		</node>
		<node id="1158" x="-182271.0499248443" y="6127841.8186349375" >
		</node>
		<node id="1159" x="-182478.93907390075" y="6128077.520856151" >
		</node>
		<node id="116" x="-181867.7616735985" y="6126290.728587028" >
		</node>
		<node id="1160" x="-182431.0939567578" y="6128057.474324172" >
		</node>
		<node id="1161" x="-181824.13556515655" y="6127940.114661908" >
		</node>
		<node id="1162" x="-181778.85079630188" y="6128025.987020914" >
		</node>
		<node id="1163" x="-182537.17029953472" y="6125820.0625263965" >
		</node>
		<node id="1164" x="-182535.54503496914" y="6125754.270046304" >
		</node>
		<node id="1165" x="-182513.43698409759" y="6125832.467450007" >
		</node>
		<node id="1166" x="-182525.01421114008" y="6125853.375789331" >
		</node>
		<node id="1167" x="-182535.87899344155" y="6125834.001393428" >
		</node>
		<node id="1168" x="-182546.8216993865" y="6125857.627491371" >
		</node>
		<node id="1169" x="-182535.244472344" y="6125844.92241155" >
		</node>
		<node id="117" x="-181774.01953040145" y="6126338.23348146" >
		</node>
		<node id="1170" x="-182525.68212808485" y="6125832.200677273" >
		</node>
		<node id="1171" x="-182535.16654870045" y="6125852.975629251" >
		</node>
		<node id="1172" x="-182525.61533639036" y="6125835.001791456" >
		</node>
		<node id="1173" x="-182525.08100283457" y="6125845.122491401" >
		</node>
		<node id="1174" x="-182525.22571817262" y="6125858.227731832" >
		</node>
		<node id="1175" x="-182536.06823657587" y="6125831.983924424" >
		</node>
		<node id="1176" x="-183427.94886486247" y="6127295.073825455" >
		</node>
		<node id="1177" x="-183397.5141160796" y="6127246.22954071" >
		</node>
		<node id="1178" x="-183421.69270947992" y="6127365.063885213" >
		</node>
		<node id="1179" x="-183421.47007049836" y="6127338.882166174" >
		</node>
		<node id="118" x="-181775.53347547626" y="6126399.861845151" >
		</node>
		<node id="1180" x="-183337.34593130584" y="6127387.310071149" >
		</node>
		<node id="1181" x="-183437.66705640874" y="6125894.992540041" >
		</node>
		<node id="1182" x="-183424.83191912028" y="6125894.992540041" >
		</node>
		<node id="1183" x="-180471.4813005784" y="6125943.812447578" >
		</node>
		<node id="1184" x="-180468.1528478037" y="6128293.332582651" >
		</node>
		<node id="1185" x="-182136.9433342857" y="6127159.464500778" >
		</node>
		<node id="1186" x="-182166.598846633" y="6127183.277689663" >
		</node>
		<node id="1187" x="-182153.90842468254" y="6127152.760799883" >
		</node>
		<node id="1188" x="-183433.2810684715" y="6126880.948490771" >
		</node>
		<node id="1189" x="-180664.73193659555" y="6128076.720328185" >
		</node>
		<node id="119" x="-181882.28886714697" y="6126327.545274103" >
		</node>
		<node id="1190" x="-180740.1954194043" y="6128075.81973431" >
		</node>
		<node id="1191" x="-180700.59907652912" y="6127461.786853246" >
		</node>
		<node id="1192" x="-181283.9577360822" y="6127328.776377557" >
		</node>
		<node id="1193" x="-181090.8629473522" y="6127775.493636165" >
		</node>
		<node id="1194" x="-181033.5111456955" y="6127779.412750556" >
		</node>
		<node id="1195" x="-181155.1833491326" y="6127745.458270084" >
		</node>
		<node id="1196" x="-181040.00107200872" y="6127757.082161068" >
		</node>
		<node id="1197" x="-181179.85174829233" y="6127719.508865924" >
		</node>
		<node id="1198" x="-181046.7025053545" y="6127733.067253022" >
		</node>
		<node id="1199" x="-181152.60073694613" y="6127722.277243341" >
		</node>
		<node id="12" x="-181786.11995905067" y="6127014.535658907" >
		</node>
		<node id="120" x="-181658.69253793958" y="6126786.333149837" >
		</node>
		<node id="1200" x="-181085.4305562015" y="6127705.616961423" >
		</node>
		<node id="1201" x="-181079.51949124035" y="6127637.108354962" >
		</node>
		<node id="1202" x="-181080.14288038883" y="6127557.210134344" >
		</node>
		<node id="1203" x="-181062.79930372324" y="6127707.86834898" >
		</node>
		<node id="1204" x="-181055.63032851613" y="6127642.611703793" >
		</node>
		<node id="1205" x="-181049.8751108421" y="6127622.0658862" >
		</node>
		<node id="1206" x="-183190.22609227343" y="6127403.5027960455" >
		</node>
		<node id="1207" x="-182549.31525598027" y="6127961.778630885" >
		</node>
		<node id="1208" x="-182399.50148527068" y="6127415.076193876" >
		</node>
		<node id="1209" x="-181575.3365032336" y="6126429.792446872" >
		</node>
		<node id="121" x="-181715.5434018877" y="6126505.628222333" >
		</node>
		<node id="1210" x="-182569.5976672028" y="6126337.6332073705" >
		</node>
		<node id="1211" x="-182573.98365514004" y="6126347.270946444" >
		</node>
		<node id="1212" x="-180388.9601620534" y="6126469.844591163" >
		</node>
		<node id="1213" x="-180601.2130351489" y="6125872.133314208" >
		</node>
		<node id="1214" x="-180685.2147229015" y="6125864.16344529" >
		</node>
		<node id="1215" x="-180634.51982679425" y="6125861.662441926" >
		</node>
		<node id="1216" x="-181266.78113865282" y="6126844.0293737" >
		</node>
		<node id="1217" x="-181227.96403221317" y="6126823.718924563" >
		</node>
		<node id="1218" x="-181275.1412324114" y="6126819.533443904" >
		</node>
		<node id="1219" x="-181241.0997321268" y="6126800.440340934" >
		</node>
		<node id="122" x="-181731.58454051102" y="6126695.954297037" >
		</node>
		<node id="1220" x="-181259.26707302424" y="6126739.392722591" >
		</node>
		<node id="1221" x="-181332.69340915148" y="6126745.862648969" >
		</node>
		<node id="1222" x="-181332.77133279506" y="6126785.416016467" >
		</node>
		<node id="1223" x="-181389.19918267816" y="6126787.8839392075" >
		</node>
		<node id="1224" x="-181166.3041662628" y="6126786.533251677" >
		</node>
		<node id="1225" x="-181141.20162108893" y="6126783.098170753" >
		</node>
		<node id="1226" x="-181112.870810682" y="6126777.728775181" >
		</node>
		<node id="1227" x="-181087.74600160998" y="6126774.260347532" >
		</node>
		<node id="1228" x="-181123.5574817982" y="6126892.854689825" >
		</node>
		<node id="1229" x="-181097.19702637833" y="6126889.336189502" >
		</node>
		<node id="123" x="-181875.94365617176" y="6126611.162457961" >
		</node>
		<node id="1230" x="-181476.21762863128" y="6126870.909943639" >
		</node>
		<node id="1231" x="-181515.34642964508" y="6126878.747346535" >
		</node>
		<node id="1232" x="-181480.7038041102" y="6126846.280534819" >
		</node>
		<node id="1233" x="-181484.744701626" y="6126825.519849142" >
		</node>
		<node id="1234" x="-181565.36227685853" y="6126830.288966053" >
		</node>
		<node id="1235" x="-181160.7493236722" y="6127003.863283303" >
		</node>
		<node id="1236" x="-181162.1630812053" y="6126993.190920993" >
		</node>
		<node id="1237" x="-181147.63588765674" y="6126896.573296004" >
		</node>
		<node id="1238" x="-181169.44337590315" y="6126772.359382973" >
		</node>
		<node id="1239" x="-181471.29730713821" y="6126898.3575605275" >
		</node>
		<node id="124" x="-181802.76222292424" y="6126800.406990576" >
		</node>
		<node id="1240" x="-181499.22736737822" y="6126904.043863967" >
		</node>
		<node id="1241" x="-181332.5709577116" y="6126767.640323655" >
		</node>
		<node id="1242" x="-181049.19606194826" y="6126744.195141701" >
		</node>
		<node id="1243" x="-180956.81201653893" y="6126728.270463666" >
		</node>
		<node id="1244" x="-180899.5270065767" y="6126724.218429897" >
		</node>
		<node id="1245" x="-181147.4021167261" y="6128081.223298967" >
		</node>
		<node id="1246" x="-181220.86184870056" y="6127866.334165534" >
		</node>
		<node id="1247" x="-181152.97922321485" y="6128025.336595849" >
		</node>
		<node id="1248" x="-181228.4872338199" y="6127855.527310749" >
		</node>
		<node id="1249" x="-181203.54053593313" y="6127785.833431203" >
		</node>
		<node id="125" x="-181715.5545338368" y="6126653.633309615" >
		</node>
		<node id="1250" x="-181170.73468199637" y="6127798.891609541" >
		</node>
		<node id="1251" x="-181231.6041795621" y="6127907.543763165" >
		</node>
		<node id="1252" x="-181098.64417975862" y="6127922.286540701" >
		</node>
		<node id="1253" x="-181189.20258551897" y="6127748.243332913" >
		</node>
		<node id="1254" x="-180828.26026857086" y="6127877.941543273" >
		</node>
		<node id="1255" x="-180646.7761027306" y="6127782.281209889" >
		</node>
		<node id="1256" x="-180865.21833951422" y="6127844.453634184" >
		</node>
		<node id="1257" x="-180759.01954529743" y="6128051.570445998" >
		</node>
		<node id="1258" x="-180725.59030221222" y="6127840.517812828" >
		</node>
		<node id="1259" x="-180753.66507779027" y="6127906.376349739" >
		</node>
		<node id="126" x="-181682.70415210372" y="6126848.581722354" >
		</node>
		<node id="1260" x="-180589.8027873426" y="6127980.507418045" >
		</node>
		<node id="1261" x="-180810.61612928013" y="6127893.918390654" >
		</node>
		<node id="1262" x="-180776.53010119923" y="6127823.356985759" >
		</node>
		<node id="1263" x="-180846.50553311186" y="6127861.397699314" >
		</node>
		<node id="1264" x="-180827.49216408437" y="6128009.075985268" >
		</node>
		<node id="1265" x="-180723.55315553074" y="6127908.377629999" >
		</node>
		<node id="1266" x="-180707.86823927797" y="6127856.010950562" >
		</node>
		<node id="1267" x="-180725.3787951797" y="6127806.996695763" >
		</node>
		<node id="1268" x="-180783.76586810077" y="6127904.391747279" >
		</node>
		<node id="1269" x="-180807.44352379252" y="6127818.887504862" >
		</node>
		<node id="127" x="-181697.23134565222" y="6126609.361578446" >
		</node>
		<node id="1270" x="-180916.0245551123" y="6127658.154514122" >
		</node>
		<node id="1271" x="-180690.31315557982" y="6127871.370698197" >
		</node>
		<node id="1272" x="-182463.00925476823" y="6125884.404926036" >
		</node>
		<node id="1273" x="-182308.5868571398" y="6125888.856724342" >
		</node>
		<node id="1274" x="-181371.59957118373" y="6127773.592449402" >
		</node>
		<node id="1275" x="-180983.43963873666" y="6127418.428146311" >
		</node>
		<node id="128" x="-181886.0514659358" y="6126636.308111486" >
		</node>
		<node id="129" x="-181707.7955653285" y="6126766.189588625" >
		</node>
		<node id="13" x="-181840.33255106703" y="6127021.789546793" >
		</node>
		<node id="130" x="-181707.73990558312" y="6126705.242264333" >
		</node>
		<node id="131" x="-181852.04336149842" y="6126620.900553751" >
		</node>
		<node id="132" x="-181669.8022231208" y="6126720.032997852" >
		</node>
		<node id="133" x="-181929.64417853043" y="6126748.28053508" >
		</node>
		<node id="134" x="-181722.48973811325" y="6126671.65888981" >
		</node>
		<node id="135" x="-180494.62462271436" y="6125823.580587586" >
		</node>
		<node id="136" x="-180522.17619668567" y="6125834.251492923" >
		</node>
		<node id="137" x="-180521.8756340605" y="6126414.101795269" >
		</node>
		<node id="138" x="-180618.02227825866" y="6125761.08936504" >
		</node>
		<node id="139" x="-180555.4384605347" y="6126412.601096838" >
		</node>
		<node id="14" x="-181941.18800972568" y="6127017.587293754" >
		</node>
		<node id="140" x="-180596.83817916072" y="6126412.601096838" >
		</node>
		<node id="141" x="-180619.81452206045" y="6125793.935548454" >
		</node>
		<node id="142" x="-180629.6329011484" y="6125762.573276196" >
		</node>
		<node id="143" x="-180618.4341603746" y="6125841.270955088" >
		</node>
		<node id="144" x="-180709.38218435275" y="6126417.970263557" >
		</node>
		<node id="145" x="-180522.4767593108" y="6125857.860918215" >
		</node>
		<node id="146" x="-180753.8431889756" y="6126397.960963669" >
		</node>
		<node id="147" x="-182947.52733844594" y="6126993.45772989" >
		</node>
		<node id="148" x="-180993.95933061666" y="6127416.1434820695" >
		</node>
		<node id="149" x="-181029.7819427539" y="6127422.113627868" >
		</node>
		<node id="15" x="-182113.35473418655" y="6126921.0027444335" >
		</node>
		<node id="150" x="-181009.15444110995" y="6127324.490592913" >
		</node>
		<node id="151" x="-181160.87177511206" y="6128081.640240826" >
		</node>
		<node id="152" x="-181132.32945767266" y="6128081.957116654" >
		</node>
		<node id="153" x="-182335.79334068968" y="6126003.403790992" >
		</node>
		<node id="154" x="-182377.8832401586" y="6126111.382893993" >
		</node>
		<node id="155" x="-183615.4888110019" y="6127149.809172051" >
		</node>
		<node id="156" x="-183610.03415595306" y="6127197.368858515" >
		</node>
		<node id="157" x="-183598.42353306332" y="6127218.714105192" >
		</node>
		<node id="158" x="-183659.27076673092" y="6127226.635206359" >
		</node>
		<node id="159" x="-182520.88425803167" y="6126051.80747322" >
		</node>
		<node id="16" x="-181802.06091013228" y="6127167.852472221" >
		</node>
		<node id="160" x="-182522.6876337825" y="6126056.676201831" >
		</node>
		<node id="161" x="-182547.70112336377" y="6126120.28672882" >
		</node>
		<node id="162" x="-182549.70487419804" y="6126125.388930477" >
		</node>
		<node id="163" x="-182574.46232895044" y="6126188.63313988" >
		</node>
		<node id="164" x="-182576.45494783565" y="6126193.785404236" >
		</node>
		<node id="165" x="-181135.5020631603" y="6125799.571099175" >
		</node>
		<node id="166" x="-180631.82589511704" y="6125863.463164273" >
		</node>
		<node id="167" x="-180438.19677283123" y="6125727.859826407" >
		</node>
		<node id="168" x="-182698.02696373098" y="6125888.073074286" >
		</node>
		<node id="169" x="-182467.00562448776" y="6127109.270250841" >
		</node>
		<node id="17" x="-182142.08629476032" y="6126956.421399539" >
		</node>
		<node id="170" x="-183107.10382849813" y="6125829.132791361" >
		</node>
		<node id="171" x="-183108.45079433674" y="6125871.299645564" >
		</node>
		<node id="172" x="-183017.09088824267" y="6125966.821926689" >
		</node>
		<node id="173" x="-181310.874788956" y="6126747.046579325" >
		</node>
		<node id="174" x="-181523.85123874174" y="6126852.38368572" >
		</node>
		<node id="175" x="-181234.73225725343" y="6126736.107736068" >
		</node>
		<node id="176" x="-183646.90317130377" y="6126635.140871294" >
		</node>
		<node id="177" x="-181872.05860594305" y="6126186.7489792565" >
		</node>
		<node id="178" x="-182002.11316703685" y="6126135.576669015" >
		</node>
		<node id="179" x="-180567.26059045698" y="6128024.902979167" >
		</node>
		<node id="18" x="-182316.69091606955" y="6127111.037883882" >
		</node>
		<node id="180" x="-180421.7214881938" y="6125987.280406748" >
		</node>
		<node id="181" x="-180392.91200397653" y="6125909.998629548" >
		</node>
		<node id="182" x="-182575.05232225166" y="6128118.84821406" >
		</node>
		<node id="183" x="-182213.24171327538" y="6125852.141962468" >
		</node>
		<node id="184" x="-180431.48420753638" y="6128055.689818196" >
		</node>
		<node id="185" x="-180481.90080491666" y="6128053.771891622" >
		</node>
		<node id="186" x="-181335.9773341299" y="6128017.948437674" >
		</node>
		<node id="187" x="-180753.79866117923" y="6126441.264482389" >
		</node>
		<node id="188" x="-181180.30815820457" y="6125743.882683689" >
		</node>
		<node id="189" x="-181265.94624247184" y="6125796.870035937" >
		</node>
		<node id="19" x="-181847.83548474644" y="6127335.0466344375" >
		</node>
		<node id="190" x="-181183.02435377994" y="6125797.470272142" >
		</node>
		<node id="191" x="-181168.54168802773" y="6125797.570311512" >
		</node>
		<node id="192" x="-181146.46703300346" y="6125799.737831502" >
		</node>
		<node id="193" x="-181267.19302076875" y="6127874.972988274" >
		</node>
		<node id="194" x="-181972.91406460176" y="6127542.267865643" >
		</node>
		<node id="195" x="-182666.6348673273" y="6127982.358618289" >
		</node>
		<node id="196" x="-180374.2882531668" y="6125850.257875847" >
		</node>
		<node id="197" x="-180502.149820292" y="6125868.215072284" >
		</node>
		<node id="198" x="-181142.8825453999" y="6125850.808095792" >
		</node>
		<node id="199" x="-181268.22829203313" y="6125858.5111787245" >
		</node>
		<node id="2" x="-182701.24409701492" y="6127965.33092664" >
		</node>
		<node id="20" x="-182324.26064144354" y="6127108.1362977605" >
		</node>
		<node id="200" x="-181849.28263812675" y="6125842.204660699" >
		</node>
		<node id="201" x="-181846.58870644958" y="6125864.930419801" >
		</node>
		<node id="202" x="-181893.34289258273" y="6126308.25317695" >
		</node>
		<node id="203" x="-182116.91695789195" y="6126885.817690624" >
		</node>
		<node id="204" x="-180455.16186322813" y="6127462.787441377" >
		</node>
		<node id="205" x="-180407.4058016778" y="6127461.820206181" >
		</node>
		<node id="206" x="-180409.82143462801" y="6127368.999488115" >
		</node>
		<node id="207" x="-180456.4531693213" y="6127369.916683963" >
		</node>
		<node id="208" x="-180478.89517866523" y="6127392.896641164" >
		</node>
		<node id="209" x="-183666.85162405393" y="6126692.702677111" >
		</node>
		<node id="21" x="-182028.05060839167" y="6127308.36472205" >
		</node>
		<node id="210" x="-183613.6297755057" y="6126708.260438996" >
		</node>
		<node id="211" x="-183496.79996991812" y="6126753.199684792" >
		</node>
		<node id="212" x="-183463.73808115252" y="6126759.085993073" >
		</node>
		<node id="213" x="-183552.89386132886" y="6126732.672675369" >
		</node>
		<node id="214" x="-182480.38622728107" y="6126071.13234041" >
		</node>
		<node id="215" x="-182357.23347461646" y="6127094.345439235" >
		</node>
		<node id="216" x="-182202.63296580277" y="6127091.877428198" >
		</node>
		<node id="217" x="-182126.79099672532" y="6127135.984894765" >
		</node>
		<node id="218" x="-182038.54803637348" y="6127171.020893" >
		</node>
		<node id="219" x="-182094.2189137192" y="6127394.597627386" >
		</node>
		<node id="22" x="-181757.51084991678" y="6126818.632982194" >
		</node>
		<node id="220" x="-182047.2198247063" y="6127031.444731231" >
		</node>
		<node id="221" x="-181824.2802804946" y="6127643.128685225" >
		</node>
		<node id="222" x="-181791.4298987615" y="6127816.052387591" >
		</node>
		<node id="223" x="-181703.37618154404" y="6127902.073598772" >
		</node>
		<node id="224" x="-181844.0394901104" y="6128060.609718757" >
		</node>
		<node id="225" x="-181843.64987189262" y="6127853.492688379" >
		</node>
		<node id="226" x="-181875.1087599908" y="6128058.72514634" >
		</node>
		<node id="227" x="-181869.76542443273" y="6128083.708272753" >
		</node>
		<node id="228" x="-182580.9633872128" y="6128107.107088067" >
		</node>
		<node id="229" x="-182329.0028517513" y="6128094.031762151" >
		</node>
		<node id="23" x="-181985.63788239943" y="6127332.628582706" >
		</node>
		<node id="230" x="-182262.42266430781" y="6128096.967037655" >
		</node>
		<node id="231" x="-182447.64716503877" y="6127796.273301434" >
		</node>
		<node id="232" x="-182496.61660903873" y="6127833.763547345" >
		</node>
		<node id="233" x="-180650.93945168625" y="6125956.4176328285" >
		</node>
		<node id="234" x="-180707.4006974166" y="6126041.553139478" >
		</node>
		<node id="235" x="-182188.02784861074" y="6127425.932522191" >
		</node>
		<node id="236" x="-182340.98082896066" y="6127267.758346128" >
		</node>
		<node id="237" x="-182357.33366215817" y="6127303.561986648" >
		</node>
		<node id="238" x="-182271.63991814552" y="6127388.360679563" >
		</node>
		<node id="239" x="-182364.32452618" y="6127317.103039207" >
		</node>
		<node id="24" x="-181802.6842992807" y="6127050.605051745" >
		</node>
		<node id="240" x="-182399.80204789582" y="6127339.332424363" >
		</node>
		<node id="241" x="-182350.73241635412" y="6127339.432481739" >
		</node>
		<node id="242" x="-182328.8358725151" y="6127373.2519424325" >
		</node>
		<node id="243" x="-182309.86703128394" y="6127436.672129328" >
		</node>
		<node id="244" x="-182311.03588593728" y="6127393.0133755" >
		</node>
		<node id="245" x="-181915.84056167208" y="6127219.831396913" >
		</node>
		<node id="246" x="-181920.42692469276" y="6127550.622858663" >
		</node>
		<node id="247" x="-183099.55636702236" y="6126924.187749333" >
		</node>
		<node id="248" x="-181875.8991283754" y="6127742.222928773" >
		</node>
		<node id="249" x="-181845.31966425452" y="6127759.416947386" >
		</node>
		<node id="25" x="-181964.91019321373" y="6127280.482212416" >
		</node>
		<node id="250" x="-181798.44302668152" y="6127803.911425412" >
		</node>
		<node id="251" x="-183614.65391482096" y="6126692.519252438" >
		</node>
		<node id="252" x="-183498.325046942" y="6126855.75209327" >
		</node>
		<node id="253" x="-183355.90289042107" y="6126923.48738166" >
		</node>
		<node id="254" x="-183480.7699632439" y="6127263.539296344" >
		</node>
		<node id="255" x="-183123.66816872818" y="6126913.29870608" >
		</node>
		<node id="256" x="-183134.65540246945" y="6127062.761621966" >
		</node>
		<node id="257" x="-183110.65492025443" y="6127063.8121905755" >
		</node>
		<node id="258" x="-183070.32386874003" y="6127041.533493436" >
		</node>
		<node id="259" x="-183133.7759784922" y="6127037.964905116" >
		</node>
		<node id="26" x="-182068.37052795704" y="6126848.414969612" >
		</node>
		<node id="260" x="-183071.80441796756" y="6127065.529787148" >
		</node>
		<node id="261" x="-182724.0311967803" y="6127726.346426232" >
		</node>
		<node id="262" x="-182691.99344733" y="6127666.1760828495" >
		</node>
		<node id="263" x="-182724.63232203058" y="6127575.104202486" >
		</node>
		<node id="264" x="-182717.9976803793" y="6127524.940870178" >
		</node>
		<node id="265" x="-182778.77812235244" y="6127521.355403881" >
		</node>
		<node id="266" x="-182773.98025229925" y="6127474.044065959" >
		</node>
		<node id="267" x="-182741.34137759867" y="6127320.104753262" >
		</node>
		<node id="268" x="-182804.0921745588" y="6127471.4758866" >
		</node>
		<node id="269" x="-183063.14376158384" y="6127333.412364917" >
		</node>
		<node id="27" x="-181764.23454716074" y="6126995.742281398" >
		</node>
		<node id="270" x="-183011.60283734658" y="6127336.180617558" >
		</node>
		<node id="271" x="-183019.22822246593" y="6127433.553639532" >
		</node>
		<node id="272" x="-183084.01616610758" y="6127429.3345080875" >
		</node>
		<node id="273" x="-183043.26210052817" y="6127212.527313378" >
		</node>
		<node id="274" x="-181849.98395091877" y="6127664.208212903" >
		</node>
		<node id="275" x="-181841.44574597492" y="6127652.000758589" >
		</node>
		<node id="276" x="-181827.15232335706" y="6127651.133563045" >
		</node>
		<node id="277" x="-181825.74969777308" y="6127681.71893594" >
		</node>
		<node id="278" x="-180780.29269998803" y="6128054.2555426285" >
		</node>
		<node id="279" x="-181527.8921362575" y="6128461.649490073" >
		</node>
		<node id="28" x="-181763.9117206374" y="6127068.881602809" >
		</node>
		<node id="280" x="-181304.11769586487" y="6128043.531838749" >
		</node>
		<node id="281" x="-180434.85718810745" y="6127297.541895036" >
		</node>
		<node id="282" x="-180421.96639107354" y="6127487.885565345" >
		</node>
		<node id="283" x="-180430.07045000332" y="6127554.625253412" >
		</node>
		<node id="284" x="-181253.97939721157" y="6126408.749305388" >
		</node>
		<node id="285" x="-181156.27428014233" y="6126431.259799398" >
		</node>
		<node id="286" x="-181408.76914915963" y="6126443.532212156" >
		</node>
		<node id="287" x="-181469.32695215117" y="6126465.125698486" >
		</node>
		<node id="288" x="-181558.60518376736" y="6126594.621060346" >
		</node>
		<node id="289" x="-181341.40972528062" y="6126450.952361553" >
		</node>
		<node id="29" x="-181806.3912383241" y="6126903.243445659" >
		</node>
		<node id="290" x="-181337.66939038996" y="6126579.497048339" >
		</node>
		<node id="291" x="-181369.36204941882" y="6126626.569998181" >
		</node>
		<node id="292" x="-181360.63460134063" y="6126437.546073847" >
		</node>
		<node id="293" x="-181255.10372406855" y="6126340.517858239" >
		</node>
		<node id="294" x="-181195.83722717024" y="6126339.55074975" >
		</node>
		<node id="295" x="-181374.6497252315" y="6126279.873697264" >
		</node>
		<node id="296" x="-181426.42442039945" y="6126308.1531316135" >
		</node>
		<node id="297" x="-181435.7084659316" y="6126258.213981376" >
		</node>
		<node id="298" x="-181472.32144645348" y="6126214.727973472" >
		</node>
		<node id="299" x="-181560.6311984998" y="6126190.700714853" >
		</node>
		<node id="3" x="-182148.19773480485" y="6127592.731480431" >
		</node>
		<node id="30" x="-181792.1757393498" y="6127068.59811586" >
		</node>
		<node id="300" x="-181700.50413868154" y="6126127.973380187" >
		</node>
		<node id="301" x="-181689.12728672248" y="6126035.217134522" >
		</node>
		<node id="302" x="-181504.24787641302" y="6126032.332586451" >
		</node>
		<node id="303" x="-181495.6206158765" y="6125952.682761191" >
		</node>
		<node id="304" x="-181778.90645604723" y="6125948.297623803" >
		</node>
		<node id="305" x="-181538.46748788288" y="6126345.55349388" >
		</node>
		<node id="306" x="-181122.75598146446" y="6126361.427437518" >
		</node>
		<node id="307" x="-180829.82987339105" y="6126135.243191297" >
		</node>
		<node id="308" x="-180773.75824587847" y="6126036.300924513" >
		</node>
		<node id="309" x="-181075.0778435577" y="6126135.943494526" >
		</node>
		<node id="31" x="-182017.3305414283" y="6127448.979335436" >
		</node>
		<node id="310" x="-180965.48380487174" y="6126039.535621602" >
		</node>
		<node id="311" x="-180599.94399295383" y="6125933.891712971" >
		</node>
		<node id="312" x="-180646.47554010543" y="6126056.842939162" >
		</node>
		<node id="313" x="-180543.23784434376" y="6126127.006295683" >
		</node>
		<node id="314" x="-180615.84041623914" y="6126022.761896333" >
		</node>
		<node id="315" x="-180516.57682629875" y="6126215.328238946" >
		</node>
		<node id="316" x="-180534.9334103306" y="6126018.37672307" >
		</node>
		<node id="317" x="-180748.52211731562" y="6126148.699027672" >
		</node>
		<node id="318" x="-180667.7041669997" y="6126125.989189695" >
		</node>
		<node id="319" x="-180752.00641737744" y="6126221.964510089" >
		</node>
		<node id="32" x="-182007.63461378022" y="6126872.694202818" >
		</node>
		<node id="320" x="-180752.60754262775" y="6126306.769171278" >
		</node>
		<node id="321" x="-180718.6439659867" y="6126223.998744984" >
		</node>
		<node id="322" x="-180653.05452201134" y="6126252.211298439" >
		</node>
		<node id="323" x="-180679.48176912565" y="6126211.743320745" >
		</node>
		<node id="324" x="-180577.03444174858" y="6126187.499308652" >
		</node>
		<node id="325" x="-180588.44468955492" y="6126272.320302825" >
		</node>
		<node id="326" x="-180550.13965277292" y="6126342.118589777" >
		</node>
		<node id="327" x="-180557.34202382725" y="6126453.053348838" >
		</node>
		<node id="328" x="-180507.5710794936" y="6126339.867561138" >
		</node>
		<node id="329" x="-181296.36985930565" y="6125904.5630874215" >
		</node>
		<node id="33" x="-182351.2333540627" y="6127196.651792562" >
		</node>
		<node id="330" x="-181286.64053581032" y="6125916.367888816" >
		</node>
		<node id="331" x="-181288.56636300104" y="6125919.719254889" >
		</node>
		<node id="332" x="-181304.24014730478" y="6125915.45084858" >
		</node>
		<node id="333" x="-181284.67018082328" y="6126064.246079889" >
		</node>
		<node id="334" x="-181361.34704608168" y="6126091.1742245555" >
		</node>
		<node id="335" x="-181227.06234433776" y="6126113.717231818" >
		</node>
		<node id="336" x="-181399.9415135397" y="6126209.258889944" >
		</node>
		<node id="337" x="-181427.12573319144" y="6125871.9999272125" >
		</node>
		<node id="338" x="-181211.83383799723" y="6126215.861808296" >
		</node>
		<node id="339" x="-181059.9940525552" y="6126034.816965945" >
		</node>
		<node id="34" x="-181789.88255783948" y="6127081.972039714" >
		</node>
		<node id="340" x="-181141.53557956128" y="6125883.43786903" >
		</node>
		<node id="341" x="-180907.97615592793" y="6125856.777150795" >
		</node>
		<node id="342" x="-180951.90282699495" y="6125855.743403543" >
		</node>
		<node id="343" x="-181060.1165039951" y="6125853.492502699" >
		</node>
		<node id="344" x="-180886.63620954286" y="6125796.603264309" >
		</node>
		<node id="345" x="-180880.93665161423" y="6125771.793538901" >
		</node>
		<node id="346" x="-180868.59132008525" y="6125668.42045635" >
		</node>
		<node id="347" x="-181105.10071022465" y="6125592.325326143" >
		</node>
		<node id="348" x="-181060.56178195827" y="6125797.5036186" >
		</node>
		<node id="349" x="-181051.7564102365" y="6125791.16779413" >
		</node>
		<node id="35" x="-181933.61828435177" y="6126997.626619965" >
		</node>
		<node id="350" x="-181074.83294067797" y="6125779.413184824" >
		</node>
		<node id="351" x="-181332.60435355888" y="6125798.353953292" >
		</node>
		<node id="352" x="-181878.57079615447" y="6125765.791196771" >
		</node>
		<node id="353" x="-181772.98425913704" y="6125762.0897545535" >
		</node>
		<node id="354" x="-181963.35172034265" y="6125786.465948472" >
		</node>
		<node id="355" x="-181695.9623034572" y="6125787.232916028" >
		</node>
		<node id="356" x="-181696.98644277253" y="6125841.42101491" >
		</node>
		<node id="357" x="-181687.11240393913" y="6125815.277298568" >
		</node>
		<node id="358" x="-181570.11561911542" y="6125818.678644903" >
		</node>
		<node id="359" x="-181528.4821295587" y="6125808.708035448" >
		</node>
		<node id="36" x="-182282.33772121076" y="6126903.110042615" >
		</node>
		<node id="360" x="-181487.14920262716" y="6125844.305498701" >
		</node>
		<node id="361" x="-181639.21162705077" y="6125544.274367256" >
		</node>
		<node id="362" x="-181601.5188474682" y="6125700.532670699" >
		</node>
		<node id="363" x="-181518.4299795401" y="6125686.077157443" >
		</node>
		<node id="364" x="-182393.91324683288" y="6125861.445688336" >
		</node>
		<node id="365" x="-182934.0688120091" y="6125835.201871075" >
		</node>
		<node id="366" x="-182214.27698453976" y="6125888.339848767" >
		</node>
		<node id="367" x="-182658.46401670307" y="6125852.225329145" >
		</node>
		<node id="368" x="-182802.9789796509" y="6125837.286034058" >
		</node>
		<node id="369" x="-182549.76053394345" y="6125831.700478407" >
		</node>
		<node id="37" x="-181325.07915598122" y="6128013.995859056" >
		</node>
		<node id="370" x="-182225.1751626884" y="6125918.435398077" >
		</node>
		<node id="371" x="-182550.07222851767" y="6125857.527451301" >
		</node>
		<node id="372" x="-181972.32407130057" y="6125869.832388945" >
		</node>
		<node id="373" x="-182525.7155239321" y="6125820.646090949" >
		</node>
		<node id="374" x="-182530.5022620362" y="6125845.10581808" >
		</node>
		<node id="375" x="-181865.76905471325" y="6125898.11046981" >
		</node>
		<node id="376" x="-181870.18843849777" y="6125915.517542411" >
		</node>
		<node id="377" x="-181884.11450679597" y="6125884.588333411" >
		</node>
		<node id="378" x="-181969.84164665587" y="6125854.00937617" >
		</node>
		<node id="379" x="-181989.68991186435" y="6125842.371393852" >
		</node>
		<node id="38" x="-182724.53213448887" y="6127933.326963117" >
		</node>
		<node id="380" x="-181858.18819739023" y="6125880.970206825" >
		</node>
		<node id="381" x="-181899.35414508556" y="6125872.850269307" >
		</node>
		<node id="382" x="-181874.05122482826" y="6125827.398769373" >
		</node>
		<node id="383" x="-182034.52940275584" y="6126252.661499512" >
		</node>
		<node id="384" x="-181453.12996624073" y="6127971.851811412" >
		</node>
		<node id="385" x="-181381.08399179933" y="6127718.324801156" >
		</node>
		<node id="386" x="-181329.34269247862" y="6127679.684354851" >
		</node>
		<node id="387" x="-182662.54944201518" y="6125829.0994447805" >
		</node>
		<node id="388" x="-182187.86086937448" y="6125929.940095832" >
		</node>
		<node id="389" x="-183651.1555758521" y="6127084.640156699" >
		</node>
		<node id="39" x="-182720.19067434792" y="6127976.704953942" >
		</node>
		<node id="390" x="-183537.4204521086" y="6126697.755194756" >
		</node>
		<node id="391" x="-183677.60508686455" y="6126726.58628479" >
		</node>
		<node id="392" x="-183387.52875775544" y="6126076.70137839" >
		</node>
		<node id="393" x="-183488.6736470902" y="6126063.845909953" >
		</node>
		<node id="394" x="-183182.6786307977" y="6126160.237382517" >
		</node>
		<node id="395" x="-183393.9630243233" y="6126137.961035105" >
		</node>
		<node id="396" x="-183435.17349981496" y="6126175.427350233" >
		</node>
		<node id="397" x="-183244.78377471125" y="6126028.264208159" >
		</node>
		<node id="398" x="-183109.84228797164" y="6125965.087876835" >
		</node>
		<node id="399" x="-183063.82281047766" y="6126284.892623083" >
		</node>
		<node id="4" x="-182299.18036016778" y="6127586.310944527" >
		</node>
		<node id="40" x="-182050.44808993928" y="6126115.768114856" >
		</node>
		<node id="400" x="-182933.36749921707" y="6126205.907410601" >
		</node>
		<node id="401" x="-183183.96993689088" y="6126226.950053848" >
		</node>
		<node id="402" x="-180498.54306879028" y="6127403.302679799" >
		</node>
		<node id="403" x="-180337.04075154738" y="6127430.501856497" >
		</node>
		<node id="404" x="-180364.39195043527" y="6127986.91157194" >
		</node>
		<node id="405" x="-180306.7729820007" y="6127988.846161038" >
		</node>
		<node id="406" x="-180330.9404434519" y="6127995.28367618" >
		</node>
		<node id="407" x="-181841.49027377123" y="6126837.509347424" >
		</node>
		<node id="408" x="-181775.8340381014" y="6126864.256494463" >
		</node>
		<node id="409" x="-181784.6394098231" y="6126887.63530361" >
		</node>
		<node id="41" x="-182072.7899117415" y="6125980.160783453" >
		</node>
		<node id="410" x="-181822.20973796584" y="6126927.956395398" >
		</node>
		<node id="411" x="-181793.9568512025" y="6126939.612528013" >
		</node>
		<node id="412" x="-182171.35218888984" y="6127015.152656033" >
		</node>
		<node id="413" x="-182087.52861232252" y="6127235.373440141" >
		</node>
		<node id="414" x="-180554.45884901573" y="6127082.122121274" >
		</node>
		<node id="415" x="-180590.35938479655" y="6126668.924201751" >
		</node>
		<node id="416" x="-181020.90977933773" y="6126919.418580141" >
		</node>
		<node id="417" x="-180710.3061361263" y="6127312.667174804" >
		</node>
		<node id="418" x="-180635.3547229752" y="6126492.4552931925" >
		</node>
		<node id="419" x="-181090.39540549085" y="6126994.975205644" >
		</node>
		<node id="42" x="-182155.25539052117" y="6125983.228723443" >
		</node>
		<node id="420" x="-180885.57867438032" y="6126737.808591879" >
		</node>
		<node id="421" x="-181047.7043807716" y="6126918.985019433" >
		</node>
		<node id="422" x="-181092.0985937" y="6126981.818199541" >
		</node>
		<node id="423" x="-180841.38483653538" y="6126729.837917573" >
		</node>
		<node id="424" x="-180511.74556039833" y="6126777.011744351" >
		</node>
		<node id="425" x="-180522.0426132967" y="6126686.683014769" >
		</node>
		<node id="426" x="-181028.390449119" y="6127045.652379934" >
		</node>
		<node id="427" x="-180531.8943882319" y="6127083.055962142" >
		</node>
		<node id="428" x="-180640.3084403155" y="6127280.949143647" >
		</node>
		<node id="429" x="-180879.58968577563" y="6126488.069879507" >
		</node>
		<node id="43" x="-182056.4816063403" y="6126070.532085032" >
		</node>
		<node id="430" x="-180522.9443011722" y="6126759.40281998" >
		</node>
		<node id="431" x="-181008.97632992466" y="6126987.888095917" >
		</node>
		<node id="432" x="-180824.06352376792" y="6127069.615333777" >
		</node>
		<node id="433" x="-180527.87575461427" y="6126989.9058371475" >
		</node>
		<node id="434" x="-181027.14367082212" y="6126887.218419864" >
		</node>
		<node id="435" x="-180974.7010587094" y="6126911.664517017" >
		</node>
		<node id="436" x="-180566.09173580364" y="6127176.957516132" >
		</node>
		<node id="437" x="-180934.8375490563" y="6126968.994723815" >
		</node>
		<node id="438" x="-180929.76138027615" y="6127280.782382485" >
		</node>
		<node id="439" x="-181013.4736373527" y="6126961.207264826" >
		</node>
		<node id="44" x="-182068.39279185515" y="6126009.122847707" >
		</node>
		<node id="440" x="-181030.07137342996" y="6127210.426139814" >
		</node>
		<node id="441" x="-180995.89628975646" y="6127200.103715275" >
		</node>
		<node id="442" x="-180850.56869452583" y="6127178.708487225" >
		</node>
		<node id="443" x="-180961.5653587958" y="6127174.873027202" >
		</node>
		<node id="444" x="-180945.2013936492" y="6127193.149843399" >
		</node>
		<node id="445" x="-180704.47299480875" y="6127331.327837915" >
		</node>
		<node id="446" x="-181107.75011410553" y="6127127.7803885145" >
		</node>
		<node id="447" x="-181193.0542399004" y="6127116.757680092" >
		</node>
		<node id="448" x="-181212.25685206224" y="6127118.225150292" >
		</node>
		<node id="449" x="-181181.65512404317" y="6127090.293232301" >
		</node>
		<node id="45" x="-182132.62413804288" y="6126049.756605491" >
		</node>
		<node id="450" x="-181782.06792958578" y="6127705.400161169" >
		</node>
		<node id="451" x="-181312.7226925032" y="6128006.074029765" >
		</node>
		<node id="452" x="-181276.84442062053" y="6127171.237679726" >
		</node>
		<node id="453" x="-182763.6720674518" y="6127408.138823848" >
		</node>
		<node id="454" x="-182851.51427763677" y="6127180.309375392" >
		</node>
		<node id="455" x="-182779.31245590825" y="6127176.690701522" >
		</node>
		<node id="456" x="-182711.75265694584" y="6127148.825296327" >
		</node>
		<node id="457" x="-181580.85794997695" y="6128170.049051051" >
		</node>
		<node id="458" x="-181495.6985395201" y="6127950.688139539" >
		</node>
		<node id="459" x="-181617.9830001565" y="6128060.97662671" >
		</node>
		<node id="46" x="-182062.0141850327" y="6126040.51936993" >
		</node>
		<node id="460" x="-181681.42397795958" y="6128058.191462196" >
		</node>
		<node id="461" x="-181681.27926262157" y="6128140.012301427" >
		</node>
		<node id="462" x="-181740.5346275708" y="6128058.27485034" >
		</node>
		<node id="463" x="-181354.2448625691" y="6126249.643485357" >
		</node>
		<node id="464" x="-181007.19521807198" y="6126260.631729856" >
		</node>
		<node id="465" x="-180722.47335647" y="6127497.724717065" >
		</node>
		<node id="466" x="-180865.61908968107" y="6127651.984081752" >
		</node>
		<node id="467" x="-180810.53820563658" y="6127610.141996805" >
		</node>
		<node id="468" x="-183551.69161082833" y="6125889.373599953" >
		</node>
		<node id="469" x="-183402.99103502664" y="6125829.983129192" >
		</node>
		<node id="47" x="-180810.10405962248" y="6125858.060998368" >
		</node>
		<node id="470" x="-180431.92948549957" y="6127963.312955633" >
		</node>
		<node id="471" x="-180442.3044620415" y="6127893.084525232" >
		</node>
		<node id="472" x="-180435.22454242702" y="6125918.0852553435" >
		</node>
		<node id="473" x="-180436.80527919633" y="6125748.0176194655" >
		</node>
		<node id="474" x="-180748.26608248678" y="6127398.449862131" >
		</node>
		<node id="475" x="-182263.26869243788" y="6125990.515085337" >
		</node>
		<node id="476" x="-182472.41575174025" y="6125905.763574956" >
		</node>
		<node id="477" x="-182231.21981103846" y="6125973.274596054" >
		</node>
		<node id="478" x="-182200.90751369548" y="6125957.3846980715" >
		</node>
		<node id="479" x="-182317.01374259286" y="6125909.715180944" >
		</node>
		<node id="48" x="-180832.1230549014" y="6125558.546240861" >
		</node>
		<node id="480" x="-182504.17520246358" y="6125892.641588399" >
		</node>
		<node id="481" x="-182453.85879262502" y="6125884.404926036" >
		</node>
		<node id="482" x="-182371.59368892878" y="6125886.355713774" >
		</node>
		<node id="483" x="-183645.19998309464" y="6126428.175024497" >
		</node>
		<node id="484" x="-183680.054115662" y="6126522.002701729" >
		</node>
		<node id="485" x="-180372.93015537912" y="6125881.153614127" >
		</node>
		<node id="486" x="-180473.49618336177" y="6125857.32737116" >
		</node>
		<node id="487" x="-180482.19023559275" y="6127430.735326203" >
		</node>
		<node id="488" x="-181920.37126494737" y="6127217.863629503" >
		</node>
		<node id="489" x="-181855.1380433425" y="6127056.191402168" >
		</node>
		<node id="49" x="-181699.0681172503" y="6126076.734725933" >
		</node>
		<node id="490" x="-181846.11003263915" y="6127033.879373583" >
		</node>
		<node id="491" x="-180498.24250616514" y="6128037.94484438" >
		</node>
		<node id="492" x="-180553.04509148264" y="6127411.991064687" >
		</node>
		<node id="493" x="-180732.6034301322" y="6127400.984666892" >
		</node>
		<node id="494" x="-181165.81436050328" y="6127239.075518974" >
		</node>
		<node id="495" x="-182157.33706499898" y="6127728.164217567" >
		</node>
		<node id="496" x="-182108.10045422113" y="6127644.896428433" >
		</node>
		<node id="497" x="-181841.44574597492" y="6127681.485459394" >
		</node>
		<node id="498" x="-183664.0686367841" y="6126685.048868936" >
		</node>
		<node id="499" x="-183509.06737780356" y="6126126.272645449" >
		</node>
		<node id="5" x="-182043.6019412555" y="6127697.995602024" >
		</node>
		<node id="50" x="-181624.58424596055" y="6126445.7665935485" >
		</node>
		<node id="500" x="-183682.0689984454" y="6126688.28381099" >
		</node>
		<node id="501" x="-182227.02306623556" y="6128065.462911573" >
		</node>
		<node id="502" x="-181880.2628524145" y="6125898.29387747" >
		</node>
		<node id="503" x="-182298.367727885" y="6127117.874958515" >
		</node>
		<node id="504" x="-182788.8748001674" y="6126786.98348083" >
		</node>
		<node id="505" x="-181674.66688486843" y="6126460.523530038" >
		</node>
		<node id="506" x="-181683.4833885393" y="6126485.802137947" >
		</node>
		<node id="507" x="-181609.93460097216" y="6126852.100205938" >
		</node>
		<node id="508" x="-182983.4724020231" y="6127593.198428682" >
		</node>
		<node id="509" x="-183512.6963932034" y="6127245.729259278" >
		</node>
		<node id="51" x="-181569.87071623563" y="6126496.707312412" >
		</node>
		<node id="510" x="-183677.8611216934" y="6127224.35059327" >
		</node>
		<node id="511" x="-182856.45686302797" y="6127709.769521155" >
		</node>
		<node id="512" x="-182677.4105940361" y="6127479.163750475" >
		</node>
		<node id="513" x="-182776.44041304578" y="6127497.17439133" >
		</node>
		<node id="514" x="-182678.4124694532" y="6127502.4108254975" >
		</node>
		<node id="515" x="-182552.83295188932" y="6127532.928960942" >
		</node>
		<node id="516" x="-182666.735054869" y="6127577.405585813" >
		</node>
		<node id="517" x="-182725.6230654987" y="6127598.668395828" >
		</node>
		<node id="518" x="-182667.84824977696" y="6127601.903682923" >
		</node>
		<node id="519" x="-182828.39321939897" y="6127679.567616604" >
		</node>
		<node id="52" x="-181576.5276217851" y="6126498.391446095" >
		</node>
		<node id="520" x="-182792.2032529421" y="6127773.242230838" >
		</node>
		<node id="521" x="-182771.54235545086" y="6127838.599934432" >
		</node>
		<node id="522" x="-182785.4238959528" y="6126411.450561548" >
		</node>
		<node id="523" x="-182693.26248952505" y="6126176.928007124" >
		</node>
		<node id="524" x="-182785.59087518897" y="6126503.0103094885" >
		</node>
		<node id="525" x="-182738.21329990737" y="6126521.552486497" >
		</node>
		<node id="526" x="-182555.84971008982" y="6125916.584643796" >
		</node>
		<node id="527" x="-182495.2807751492" y="6127097.847348001" >
		</node>
		<node id="528" x="-182376.69212160714" y="6127146.907572796" >
		</node>
		<node id="529" x="-181936.1341048437" y="6126469.961312921" >
		</node>
		<node id="53" x="-181582.29397140816" y="6126574.527974147" >
		</node>
		<node id="530" x="-182193.7385384884" y="6126374.516793425" >
		</node>
		<node id="531" x="-182173.5897106548" y="6126280.657383162" >
		</node>
		<node id="532" x="-182220.6555913622" y="6126449.535029151" >
		</node>
		<node id="533" x="-181906.92387045952" y="6127792.420887773" >
		</node>
		<node id="534" x="-181815.15208224952" y="6127885.92996324" >
		</node>
		<node id="535" x="-181777.14760809272" y="6127985.594050304" >
		</node>
		<node id="536" x="-181803.46353571623" y="6128293.7662129225" >
		</node>
		<node id="537" x="-181833.06338831817" y="6126202.022364056" >
		</node>
		<node id="538" x="-183624.87304407576" y="6126541.061834777" >
		</node>
		<node id="539" x="-183498.00222041868" y="6126738.892470754" >
		</node>
		<node id="54" x="-181257.3523777826" y="6127846.404868322" >
		</node>
		<node id="540" x="-181623.62689833972" y="6126872.027189994" >
		</node>
		<node id="541" x="-184257.24567542513" y="6126360.5603726115" >
		</node>
		<node id="542" x="-182110.83891369464" y="6126091.75780758" >
		</node>
		<node id="543" x="-183737.38365342058" y="6126670.124796401" >
		</node>
		<node id="544" x="-183456.86966857058" y="6125853.225729301" >
		</node>
		<node id="545" x="-183494.97433026912" y="6126129.390659391" >
		</node>
		<node id="546" x="-182704.68386928044" y="6127945.101205728" >
		</node>
		<node id="547" x="-183686.02084036852" y="6126699.205918187" >
		</node>
		<node id="548" x="-182313.7632134617" y="6126011.757283279" >
		</node>
		<node id="549" x="-182753.4306742988" y="6127833.81357892" >
		</node>
		<node id="55" x="-180729.3751648992" y="6125767.64191848" >
		</node>
		<node id="550" x="-182604.16236909412" y="6127764.436740123" >
		</node>
		<node id="551" x="-182515.2292278994" y="6127407.455092968" >
		</node>
		<node id="552" x="-183418.74274297387" y="6125776.7121279435" >
		</node>
		<node id="553" x="-183381.11675508576" y="6125681.442061473" >
		</node>
		<node id="554" x="-182824.73080815191" y="6127141.071025543" >
		</node>
		<node id="555" x="-182704.52802199335" y="6127208.7418661425" >
		</node>
		<node id="556" x="-182653.17634089038" y="6127273.31148597" >
		</node>
		<node id="557" x="-182661.2692678711" y="6127315.718915857" >
		</node>
		<node id="558" x="-182668.8835210413" y="6127334.279528297" >
		</node>
		<node id="559" x="-182672.79083516815" y="6127343.784978809" >
		</node>
		<node id="56" x="-180721.9946826596" y="6125855.960156989" >
		</node>
		<node id="560" x="-182673.51441185834" y="6127345.769451387" >
		</node>
		<node id="561" x="-181940.78725955883" y="6126289.844855092" >
		</node>
		<node id="562" x="-182004.37295269995" y="6126442.765185844" >
		</node>
		<node id="563" x="-182048.62245029025" y="6126382.186998536" >
		</node>
		<node id="564" x="-181911.46570568386" y="6126401.512610984" >
		</node>
		<node id="565" x="-181893.62119130974" y="6126486.36907328" >
		</node>
		<node id="566" x="-182043.79118438988" y="6126546.130937671" >
		</node>
		<node id="567" x="-182667.3361801193" y="6126840.277439815" >
		</node>
		<node id="568" x="-182659.98909372694" y="6126820.900811862" >
		</node>
		<node id="569" x="-182463.43226883325" y="6126811.729445581" >
		</node>
		<node id="57" x="-182145.52606702578" y="6126011.573873181" >
		</node>
		<node id="570" x="-182625.72495446078" y="6126735.790910021" >
		</node>
		<node id="571" x="-182555.98329347878" y="6126762.72116565" >
		</node>
		<node id="572" x="-182261.85493490478" y="6126255.429402936" >
		</node>
		<node id="573" x="-182340.7915858263" y="6126352.056471437" >
		</node>
		<node id="574" x="-182269.0127781628" y="6126361.97769029" >
		</node>
		<node id="575" x="-182140.44989824563" y="6126390.524185792" >
		</node>
		<node id="576" x="-182112.5087060565" y="6126314.155853748" >
		</node>
		<node id="577" x="-182584.5144789691" y="6126391.041091667" >
		</node>
		<node id="578" x="-182516.26449916372" y="6126419.270869665" >
		</node>
		<node id="579" x="-182781.63903326582" y="6127787.234307619" >
		</node>
		<node id="58" x="-181081.40079063474" y="6127287.986467448" >
		</node>
		<node id="580" x="-182793.03814912305" y="6127794.455495635" >
		</node>
		<node id="581" x="-183205.84421683176" y="6127427.983719407" >
		</node>
		<node id="582" x="-183048.6722277807" y="6127536.064163529" >
		</node>
		<node id="583" x="-183087.4670703222" y="6127583.209076956" >
		</node>
		<node id="584" x="-183108.69569721646" y="6127629.5537636895" >
		</node>
		<node id="585" x="-183129.38999055492" y="6127612.159884616" >
		</node>
		<node id="586" x="-183097.76412322055" y="6127574.553871781" >
		</node>
		<node id="587" x="-183326.0803988376" y="6127509.865245267" >
		</node>
		<node id="588" x="-183249.9601310331" y="6127503.328035635" >
		</node>
		<node id="589" x="-183217.26559658715" y="6127537.9986507995" >
		</node>
		<node id="59" x="-181035.15867415923" y="6127796.540135344" >
		</node>
		<node id="590" x="-183223.76665484946" y="6127508.681209479" >
		</node>
		<node id="591" x="-184008.24623841877" y="6126259.364496082" >
		</node>
		<node id="592" x="-182816.5376936295" y="6128231.073510293" >
		</node>
		<node id="593" x="-180828.73894238131" y="6125773.760974181" >
		</node>
		<node id="594" x="-180864.67287400935" y="6125797.470272142" >
		</node>
		<node id="595" x="-180903.26734146735" y="6125823.4638746325" >
		</node>
		<node id="596" x="-180886.1797996306" y="6125824.114132539" >
		</node>
		<node id="597" x="-180738.80392576937" y="6125856.360317212" >
		</node>
		<node id="598" x="-180791.01276695143" y="6125857.610818026" >
		</node>
		<node id="599" x="-183574.10022432497" y="6126406.781724278" >
		</node>
		<node id="6" x="-182051.1382707822" y="6127709.569397745" >
		</node>
		<node id="60" x="-181569.8929801338" y="6126994.825125609" >
		</node>
		<node id="600" x="-183143.66114927462" y="6126230.951830208" >
		</node>
		<node id="601" x="-183092.44305156064" y="6126259.4645408485" >
		</node>
		<node id="602" x="-182923.8274188561" y="6126402.829889008" >
		</node>
		<node id="603" x="-183075.84531548337" y="6126241.173042465" >
		</node>
		<node id="604" x="-182972.5408280272" y="6126326.86162947" >
		</node>
		<node id="605" x="-183018.30427069234" y="6126142.613051974" >
		</node>
		<node id="606" x="-182903.01067407776" y="6126207.374724779" >
		</node>
		<node id="607" x="-182989.85100884555" y="6126203.13952318" >
		</node>
		<node id="608" x="-182876.17154484746" y="6126179.529146355" >
		</node>
		<node id="609" x="-182820.71217453424" y="6126092.09128361" >
		</node>
		<node id="61" x="-181680.52229008413" y="6127007.84874701" >
		</node>
		<node id="610" x="-183139.35308498095" y="6126348.704936232" >
		</node>
		<node id="611" x="-183181.2537413155" y="6126360.477000993" >
		</node>
		<node id="612" x="-182926.95549654737" y="6126437.9462612355" >
		</node>
		<node id="613" x="-183529.86185868375" y="6126679.079236804" >
		</node>
		<node id="614" x="-182952.41426409179" y="6126888.268966942" >
		</node>
		<node id="615" x="-182846.73867148173" y="6126930.374332905" >
		</node>
		<node id="616" x="-182908.87721124256" y="6126779.513014951" >
		</node>
		<node id="617" x="-182901.98653476243" y="6126695.170573143" >
		</node>
		<node id="618" x="-182858.00420395003" y="6126759.969773421" >
		</node>
		<node id="619" x="-182827.98133728307" y="6126882.666050679" >
		</node>
		<node id="62" x="-181681.23473482524" y="6127152.277199773" >
		</node>
		<node id="620" x="-182665.1209222525" y="6126946.416114898" >
		</node>
		<node id="621" x="-182675.40684320178" y="6126974.064079937" >
		</node>
		<node id="622" x="-182589.57951580017" y="6126975.998440296" >
		</node>
		<node id="623" x="-182559.32287820257" y="6126987.838069275" >
		</node>
		<node id="624" x="-182456.92007862186" y="6126934.709946698" >
		</node>
		<node id="625" x="-182434.93447919018" y="6126765.20575697" >
		</node>
		<node id="626" x="-182712.35378219606" y="6126656.468042195" >
		</node>
		<node id="627" x="-182726.09060736" y="6126653.333161513" >
		</node>
		<node id="628" x="-183545.20168451502" y="6126715.61411763" >
		</node>
		<node id="629" x="-182900.6952286692" y="6126777.395272454" >
		</node>
		<node id="63" x="-181728.81268519032" y="6127134.734207321" >
		</node>
		<node id="630" x="-182882.76165870242" y="6126749.180989389" >
		</node>
		<node id="631" x="-182852.37143771586" y="6126953.953428245" >
		</node>
		<node id="632" x="-182935.87218775996" y="6127264.489833066" >
		</node>
		<node id="633" x="-183542.35190555075" y="6127088.258791685" >
		</node>
		<node id="634" x="-183507.94305094655" y="6127086.307730235" >
		</node>
		<node id="635" x="-183551.5357635412" y="6127239.092195008" >
		</node>
		<node id="636" x="-183685.09688859497" y="6126908.229385917" >
		</node>
		<node id="637" x="-183615.94522091417" y="6126998.276966997" >
		</node>
		<node id="638" x="-183535.83971533933" y="6126944.5151121365" >
		</node>
		<node id="639" x="-183527.0788714139" y="6126895.6228001" >
		</node>
		<node id="64" x="-181146.21099817462" y="6127927.139655144" >
		</node>
		<node id="640" x="-183499.58295718796" y="6126930.007473377" >
		</node>
		<node id="641" x="-183737.450445115" y="6126883.032908176" >
		</node>
		<node id="642" x="-182734.62881230382" y="6126649.514611606" >
		</node>
		<node id="643" x="-181320.8935431274" y="6125862.5628030505" >
		</node>
		<node id="644" x="-181292.06179501195" y="6125858.661238856" >
		</node>
		<node id="645" x="-181293.94309440636" y="6125839.987110032" >
		</node>
		<node id="646" x="-181329.27590078415" y="6125842.554800332" >
		</node>
		<node id="647" x="-181304.74108501332" y="6125866.564409204" >
		</node>
		<node id="648" x="-181314.96021426815" y="6125831.717151701" >
		</node>
		<node id="649" x="-180654.0675293776" y="6125882.12067087" >
		</node>
		<node id="65" x="-181136.04752866522" y="6127942.849755816" >
		</node>
		<node id="650" x="-180651.97472295063" y="6125864.546932536" >
		</node>
		<node id="651" x="-180627.01689311478" y="6125878.26911792" >
		</node>
		<node id="652" x="-180642.21200360806" y="6125889.440293586" >
		</node>
		<node id="653" x="-181275.84254520337" y="6125847.740203216" >
		</node>
		<node id="654" x="-180502.6730218987" y="6125880.720105957" >
		</node>
		<node id="655" x="-180687.7305433934" y="6125876.134924828" >
		</node>
		<node id="656" x="-181815.9869784305" y="6125844.272152062" >
		</node>
		<node id="657" x="-180470.74659193918" y="6125887.439484934" >
		</node>
		<node id="658" x="-180398.42231877078" y="6125822.330091739" >
		</node>
		<node id="659" x="-180449.2619302161" y="6125823.4138547955" >
		</node>
		<node id="66" x="-181297.59437370437" y="6127581.09113577" >
		</node>
		<node id="660" x="-182538.11651520643" y="6127931.47577347" >
		</node>
		<node id="661" x="-182633.92920093224" y="6128011.944521505" >
		</node>
		<node id="662" x="-181215.26247831367" y="6126883.533168427" >
		</node>
		<node id="663" x="-181241.78991296972" y="6126874.9953974495" >
		</node>
		<node id="664" x="-181751.81129198818" y="6125860.562000675" >
		</node>
		<node id="665" x="-181751.72223639555" y="6125880.820146306" >
		</node>
		<node id="666" x="-183007.0610021222" y="6127080.738035892" >
		</node>
		<node id="667" x="-183115.87580437263" y="6127151.393378954" >
		</node>
		<node id="668" x="-182984.14031896787" y="6127166.601780134" >
		</node>
		<node id="669" x="-183009.68814210492" y="6127306.863866949" >
		</node>
		<node id="67" x="-181238.9735298526" y="6127594.015588182" >
		</node>
		<node id="670" x="-182754.09859124356" y="6127713.054881078" >
		</node>
		<node id="671" x="-183218.53463878218" y="6125827.898967989" >
		</node>
		<node id="672" x="-181512.46325483354" y="6128029.622731166" >
		</node>
		<node id="673" x="-181412.0196782908" y="6128075.85308964" >
		</node>
		<node id="674" x="-183463.24827539304" y="6125890.740819457" >
		</node>
		<node id="675" x="-181353.99995968933" y="6125864.830379642" >
		</node>
		<node id="676" x="-181365.74416596806" y="6125852.92560924" >
		</node>
		<node id="677" x="-182296.8983106065" y="6125836.785834894" >
		</node>
		<node id="678" x="-182517.09939534467" y="6125858.4278119905" >
		</node>
		<node id="679" x="-182534.1090135379" y="6125857.994304979" >
		</node>
		<node id="68" x="-181340.20747478004" y="6127328.159357847" >
		</node>
		<node id="680" x="-183583.0280474866" y="6127173.088705087" >
		</node>
		<node id="681" x="-183587.9706328778" y="6127219.898100904" >
		</node>
		<node id="682" x="-183589.49570990168" y="6127234.806455235" >
		</node>
		<node id="683" x="-181362.00383107737" y="6126682.097402249" >
		</node>
		<node id="684" x="-180887.02582776063" y="6126898.807795558" >
		</node>
		<node id="685" x="-182009.73855215622" y="6126878.09700858" >
		</node>
		<node id="686" x="-181838.15068904744" y="6127243.011063993" >
		</node>
		<node id="687" x="-181724.74952377635" y="6127124.5619562995" >
		</node>
		<node id="688" x="-183048.572040239" y="6126849.949094946" >
		</node>
		<node id="689" x="-183042.08211392578" y="6126832.006515808" >
		</node>
		<node id="69" x="-181353.64373731878" y="6127927.006236156" >
		</node>
		<node id="690" x="-183033.53277703287" y="6126808.377730536" >
		</node>
		<node id="691" x="-183067.8637079935" y="6126821.517795037" >
		</node>
		<node id="692" x="-183113.9945049782" y="6126633.740183277" >
		</node>
		<node id="693" x="-183189.6138350741" y="6126825.019592273" >
		</node>
		<node id="694" x="-182752.70709760865" y="6126557.069538342" >
		</node>
		<node id="695" x="-182903.18878526302" y="6126714.546916712" >
		</node>
		<node id="696" x="-182767.67956912032" y="6126613.1467608325" >
		</node>
		<node id="697" x="-183065.3812833488" y="6126575.428410194" >
		</node>
		<node id="698" x="-183058.90248898463" y="6126876.396124917" >
		</node>
		<node id="699" x="-182976.303426816" y="6126909.31328636" >
		</node>
		<node id="7" x="-182249.07545736173" y="6127532.728841666" >
		</node>
		<node id="70" x="-181341.27614189166" y="6127297.441838144" >
		</node>
		<node id="700" x="-181330.4224915393" y="6128055.172811859" >
		</node>
		<node id="701" x="-181316.41849959752" y="6128015.179964696" >
		</node>
		<node id="702" x="-181280.03929000627" y="6127458.368177996" >
		</node>
		<node id="703" x="-181321.62825176664" y="6127190.71515578" >
		</node>
		<node id="704" x="-181326.59310105603" y="6127179.258792494" >
		</node>
		<node id="705" x="-181480.73719995748" y="6127056.274780569" >
		</node>
		<node id="706" x="-181689.62822443107" y="6126464.642137187" >
		</node>
		<node id="707" x="-181793.28893425778" y="6126152.183875981" >
		</node>
		<node id="708" x="-181801.04790276603" y="6126127.33977309" >
		</node>
		<node id="709" x="-181810.91080965032" y="6126098.827502177" >
		</node>
		<node id="71" x="-181355.79220349115" y="6127327.7424526615" >
		</node>
		<node id="710" x="-181902.52675057316" y="6125847.10661684" >
		</node>
		<node id="711" x="-181699.59131885704" y="6127059.4598357575" >
		</node>
		<node id="712" x="-182032.91527013932" y="6126710.828389549" >
		</node>
		<node id="713" x="-181527.63610142868" y="6127064.079001666" >
		</node>
		<node id="714" x="-181308.33670456594" y="6127013.635176704" >
		</node>
		<node id="715" x="-181154.5043002387" y="6127002.862748771" >
		</node>
		<node id="716" x="-181194.80195590586" y="6126891.137127878" >
		</node>
		<node id="717" x="-181255.40428669375" y="6126767.606973423" >
		</node>
		<node id="718" x="-181444.8032683294" y="6126784.482208044" >
		</node>
		<node id="719" x="-181147.93645028194" y="6126991.223205643" >
		</node>
		<node id="72" x="-181330.62286662278" y="6127933.843962098" >
		</node>
		<node id="720" x="-181309.61687871005" y="6127029.310250833" >
		</node>
		<node id="721" x="-181416.50585376975" y="6126381.419977716" >
		</node>
		<node id="722" x="-181281.09682516882" y="6126392.458414395" >
		</node>
		<node id="723" x="-179954.52471728355" y="6126507.479103871" >
		</node>
		<node id="724" x="-182036.52202164102" y="6126430.909635704" >
		</node>
		<node id="725" x="-182202.77768114078" y="6126381.553372633" >
		</node>
		<node id="726" x="-180414.6860963757" y="6126493.939331035" >
		</node>
		<node id="727" x="-180414.76402001924" y="6126431.359846172" >
		</node>
		<node id="728" x="-183620.27554910604" y="6126113.083625771" >
		</node>
		<node id="729" x="-180818.46415338104" y="6128059.7591594765" >
		</node>
		<node id="73" x="-181307.501808385" y="6127881.9941228265" >
		</node>
		<node id="730" x="-180814.4121239162" y="6128297.268612078" >
		</node>
		<node id="731" x="-182851.41409009506" y="6127560.695555684" >
		</node>
		<node id="732" x="-181951.03978466088" y="6127772.391700091" >
		</node>
		<node id="733" x="-182028.99682406342" y="6127674.047567156" >
		</node>
		<node id="734" x="-181991.76045439308" y="6127626.101667911" >
		</node>
		<node id="735" x="-181916.4416869224" y="6127688.956711914" >
		</node>
		<node id="736" x="-181946.3421021494" y="6127663.507784728" >
		</node>
		<node id="737" x="-182032.1249017547" y="6127585.643876135" >
		</node>
		<node id="738" x="-182046.06210200206" y="6127601.736915516" >
		</node>
		<node id="739" x="-182126.7798647762" y="6127625.367889276" >
		</node>
		<node id="74" x="-181446.3506092514" y="6127530.861061993" >
		</node>
		<node id="740" x="-182239.55764089889" y="6127530.8277087845" >
		</node>
		<node id="741" x="-182290.20800920983" y="6127568.250086225" >
		</node>
		<node id="742" x="-182125.28818359962" y="6127532.528722396" >
		</node>
		<node id="743" x="-180499.90116657797" y="6125680.675103388" >
		</node>
		<node id="744" x="-181805.45615460144" y="6125854.026049508" >
		</node>
		<node id="745" x="-182179.8013382411" y="6127643.4455448305" >
		</node>
		<node id="746" x="-182933.60127014772" y="6125826.481738657" >
		</node>
		<node id="747" x="-182802.56709753495" y="6125823.864033337" >
		</node>
		<node id="748" x="-183963.98560887933" y="6125962.90364146" >
		</node>
		<node id="749" x="-181400.5871665863" y="6127997.852012582" >
		</node>
		<node id="75" x="-181538.52314762826" y="6127628.719924003" >
		</node>
		<node id="750" x="-182207.6312109394" y="6126393.992458078" >
		</node>
		<node id="751" x="-180985.5769729599" y="6125870.532670482" >
		</node>
		<node id="752" x="-180893.09274000887" y="6125872.200007701" >
		</node>
		<node id="753" x="-180995.6513868767" y="6125897.610267094" >
		</node>
		<node id="754" x="-180958.3370935628" y="6125976.375880735" >
		</node>
		<node id="755" x="-182172.2984045616" y="6125868.014991894" >
		</node>
		<node id="756" x="-181931.23604724876" y="6125771.343363093" >
		</node>
		<node id="757" x="-181929.71097022493" y="6125799.220961299" >
		</node>
		<node id="758" x="-182203.4344661365" y="6125837.636173485" >
		</node>
		<node id="759" x="-182213.4866161551" y="6125867.064610102" >
		</node>
		<node id="76" x="-181488.96371032708" y="6127680.067923375" >
		</node>
		<node id="760" x="-182489.15820315556" y="6125815.127239201" >
		</node>
		<node id="761" x="-182474.57534986167" y="6125815.177258993" >
		</node>
		<node id="762" x="-182247.4724566943" y="6125821.896586551" >
		</node>
		<node id="763" x="-182505.45537660774" y="6125832.700876166" >
		</node>
		<node id="764" x="-182456.66404379302" y="6125834.134779827" >
		</node>
		<node id="765" x="-182183.9869510949" y="6125838.953364804" >
		</node>
		<node id="766" x="-182414.3960331388" y="6125860.97883447" >
		</node>
		<node id="767" x="-182267.8327915604" y="6125863.229737282" >
		</node>
		<node id="768" x="-181543.85535123726" y="6126983.735886116" >
		</node>
		<node id="769" x="-181446.6289079784" y="6127936.245506163" >
		</node>
		<node id="77" x="-181352.90902867954" y="6127889.498904838" >
		</node>
		<node id="770" x="-181398.015686349" y="6127826.258814164" >
		</node>
		<node id="771" x="-182343.51891335074" y="6125836.202269242" >
		</node>
		<node id="772" x="-182312.0711572016" y="6125836.585755236" >
		</node>
		<node id="773" x="-181963.47417178252" y="6127793.071295155" >
		</node>
		<node id="774" x="-181949.2030130628" y="6127852.742213037" >
		</node>
		<node id="775" x="-181968.316569632" y="6127883.861979067" >
		</node>
		<node id="776" x="-182615.66167249304" y="6127142.555175758" >
		</node>
		<node id="777" x="-182582.9448741489" y="6127170.83745808" >
		</node>
		<node id="778" x="-182386.9446467092" y="6127208.691838217" >
		</node>
		<node id="779" x="-182508.79496133153" y="6127225.93481396" >
		</node>
		<node id="78" x="-181504.59296683446" y="6127505.129103096" >
		</node>
		<node id="780" x="-182395.17115707882" y="6127234.372878569" >
		</node>
		<node id="781" x="-182387.64595950118" y="6127236.173889482" >
		</node>
		<node id="782" x="-182448.8605474884" y="6127238.058280935" >
		</node>
		<node id="783" x="-182403.65370227725" y="6127238.491857786" >
		</node>
		<node id="784" x="-182382.3694156376" y="6127242.427402536" >
		</node>
		<node id="785" x="-182405.51273777353" y="6127241.109995409" >
		</node>
		<node id="786" x="-182430.84905387808" y="6127242.060529648" >
		</node>
		<node id="787" x="-182454.6157651624" y="6127249.214553877" >
		</node>
		<node id="788" x="-182404.46633456007" y="6127254.734329568" >
		</node>
		<node id="789" x="-182430.83792192902" y="6127255.451400389" >
		</node>
		<node id="79" x="-181291.79462823406" y="6127328.526234427" >
		</node>
		<node id="790" x="-182384.98542367123" y="6127255.884978121" >
		</node>
		<node id="791" x="-182451.25391654047" y="6127257.435852499" >
		</node>
		<node id="792" x="-182440.61177322062" y="6127261.538166737" >
		</node>
		<node id="793" x="-182599.70958946238" y="6125952.899517089" >
		</node>
		<node id="794" x="-182587.95425123462" y="6125997.584696384" >
		</node>
		<node id="795" x="-182604.5853831591" y="6126038.70193667" >
		</node>
		<node id="796" x="-180231.9106244422" y="6127521.322050713" >
		</node>
		<node id="797" x="-182387.9242582282" y="6126136.243624501" >
		</node>
		<node id="798" x="-182213.2305813263" y="6126142.679747573" >
		</node>
		<node id="799" x="-182387.3676607742" y="6126227.833779302" >
		</node>
		<node id="8" x="-181779.95285926072" y="6126875.762462463" >
		</node>
		<node id="80" x="-181723.64746081748" y="6127464.50511795" >
		</node>
		<node id="800" x="-182358.14629444096" y="6126239.155477579" >
		</node>
		<node id="801" x="-182395.10436538432" y="6126247.809333628" >
		</node>
		<node id="802" x="-182194.72928195645" y="6126399.178194746" >
		</node>
		<node id="803" x="-182202.7665491917" y="6126420.988337016" >
		</node>
		<node id="804" x="-182374.5102595876" y="6126427.207906112" >
		</node>
		<node id="805" x="-182063.70624129276" y="6126452.569788229" >
		</node>
		<node id="806" x="-182074.50423189971" y="6126474.179971885" >
		</node>
		<node id="807" x="-183202.29312507543" y="6126225.132581038" >
		</node>
		<node id="808" x="-183381.23920652564" y="6126208.108381963" >
		</node>
		<node id="809" x="-183198.58618603204" y="6126248.743083551" >
		</node>
		<node id="81" x="-181399.98604133603" y="6127531.378036682" >
		</node>
[...]
		<link id="3957" from="734" to="737" length="38.1483714532028" freespeed="4.166666666666667" capacity="30.0" permlanes="1.0" oneway="1" modes="car" >
		</link>
		<link id="3958" from="737" to="734" length="38.1483714532028" freespeed="4.166666666666667" capacity="30.0" permlanes="1.0" oneway="1" modes="car" >
		</link>
		<link id="3959" from="739" to="496" length="18.038661442933584" freespeed="8.333333333333334" capacity="60.0" permlanes="1.0" oneway="1" modes="car" >
		</link>
		<link id="3960" from="496" to="739" length="18.038661442933584" freespeed="8.333333333333334" capacity="60.0" permlanes="1.0" oneway="1" modes="car" >
		</link>
		<link id="3961" from="496" to="733" length="56.5999529341706" freespeed="8.333333333333334" capacity="60.0" permlanes="1.0" oneway="1" modes="car" >
		</link>
		<link id="3962" from="733" to="496" length="56.5999529341706" freespeed="8.333333333333334" capacity="60.0" permlanes="1.0" oneway="1" modes="car" >
		</link>
		<link id="3963" from="733" to="937" length="31.123190979238206" freespeed="8.333333333333334" capacity="60.0" permlanes="1.0" oneway="1" modes="car" >
		</link>
		<link id="3964" from="937" to="733" length="31.123190979238206" freespeed="8.333333333333334" capacity="60.0" permlanes="1.0" oneway="1" modes="car" >
		</link>
		<link id="3965" from="1206" to="1034" length="70.24263423142888" freespeed="4.166666666666667" capacity="30.0" permlanes="1.0" oneway="1" modes="car" >
		</link>
		<link id="3966" from="1034" to="1206" length="70.24263423142888" freespeed="4.166666666666667" capacity="30.0" permlanes="1.0" oneway="1" modes="car" >
		</link>
		<link id="3967" from="1034" to="1031" length="60.90758908605825" freespeed="4.166666666666667" capacity="30.0" permlanes="1.0" oneway="1" modes="car" >
		</link>
		<link id="3968" from="1031" to="1034" length="60.90758908605825" freespeed="4.166666666666667" capacity="30.0" permlanes="1.0" oneway="1" modes="car" >
		</link>
		<link id="3969" from="1247" to="1251" length="118.74383793819278" freespeed="5.555555555555555" capacity="30.0" permlanes="1.0" oneway="1" modes="car" >
		</link>
		<link id="3970" from="1251" to="1247" length="118.74383793819278" freespeed="5.555555555555555" capacity="30.0" permlanes="1.0" oneway="1" modes="car" >
		</link>
		<link id="3971" from="1251" to="1246" length="28.769842813310973" freespeed="5.555555555555555" capacity="30.0" permlanes="1.0" oneway="1" modes="car" >
		</link>
		<link id="3972" from="1246" to="1251" length="28.769842813310973" freespeed="5.555555555555555" capacity="30.0" permlanes="1.0" oneway="1" modes="car" >
		</link>
		<link id="3973" from="1246" to="1248" length="8.828456264777648" freespeed="5.555555555555555" capacity="30.0" permlanes="1.0" oneway="1" modes="car" >
		</link>
		<link id="3974" from="1248" to="1246" length="8.828456264777648" freespeed="5.555555555555555" capacity="30.0" permlanes="1.0" oneway="1" modes="car" >
		</link>
		<link id="3975" from="1248" to="1249" length="49.41085432630482" freespeed="5.555555555555555" capacity="30.0" permlanes="1.0" oneway="1" modes="car" >
		</link>
		<link id="3976" from="1249" to="1248" length="49.41085432630482" freespeed="5.555555555555555" capacity="30.0" permlanes="1.0" oneway="1" modes="car" >
		</link>
		<link id="3977" from="1249" to="1253" length="26.854705745483116" freespeed="5.555555555555555" capacity="30.0" permlanes="1.0" oneway="1" modes="car" >
		</link>
		<link id="3978" from="1253" to="1249" length="26.854705745483116" freespeed="5.555555555555555" capacity="30.0" permlanes="1.0" oneway="1" modes="car" >
		</link>
		<link id="3979" from="3" to="745" length="39.89126664615156" freespeed="8.333333333333334" capacity="30.0" permlanes="1.0" oneway="1" modes="car" >
		</link>
		<link id="3980" from="745" to="3" length="39.89126664615156" freespeed="8.333333333333334" capacity="30.0" permlanes="1.0" oneway="1" modes="car" >
		</link>
		<link id="3981" from="1053" to="739" length="26.811622094713215" freespeed="4.166666666666667" capacity="30.0" permlanes="1.0" oneway="1" modes="car" >
		</link>
		<link id="3982" from="739" to="1053" length="26.811622094713215" freespeed="4.166666666666667" capacity="30.0" permlanes="1.0" oneway="1" modes="car" >
		</link>
		<link id="3983" from="733" to="734" length="40.70782083774753" freespeed="4.166666666666667" capacity="30.0" permlanes="1.0" oneway="1" modes="car" >
		</link>
		<link id="3984" from="734" to="733" length="40.70782083774753" freespeed="4.166666666666667" capacity="30.0" permlanes="1.0" oneway="1" modes="car" >
		</link>
		<link id="3985" from="741" to="4" length="13.461613962415317" freespeed="4.166666666666667" capacity="30.0" permlanes="1.0" oneway="1" modes="car" >
		</link>
		<link id="3986" from="4" to="741" length="13.461613962415317" freespeed="4.166666666666667" capacity="30.0" permlanes="1.0" oneway="1" modes="car" >
		</link>
		<link id="3987" from="35" to="14" length="14.250943280912116" freespeed="4.166666666666667" capacity="30.0" permlanes="1.0" oneway="1" modes="car" >
		</link>
		<link id="3988" from="14" to="35" length="14.250943280912116" freespeed="4.166666666666667" capacity="30.0" permlanes="1.0" oneway="1" modes="car" >
		</link>
		<link id="3989" from="34" to="8" length="181.94886747436408" freespeed="4.166666666666667" capacity="30.0" permlanes="1.0" oneway="1" modes="car" >
		</link>
		<link id="3990" from="8" to="34" length="181.94886747436408" freespeed="4.166666666666667" capacity="30.0" permlanes="1.0" oneway="1" modes="car" >
		</link>
		<link id="3991" from="13" to="490" length="8.944861608775637" freespeed="4.166666666666667" capacity="30.0" permlanes="1.0" oneway="1" modes="car" >
		</link>
		<link id="3992" from="490" to="13" length="8.944861608775637" freespeed="4.166666666666667" capacity="30.0" permlanes="1.0" oneway="1" modes="car" >
		</link>
		<link id="3993" from="30" to="27" length="52.08954872528836" freespeed="4.166666666666667" capacity="30.0" permlanes="1.0" oneway="1" modes="car" >
		</link>
		<link id="3994" from="27" to="30" length="52.08954872528836" freespeed="4.166666666666667" capacity="30.0" permlanes="1.0" oneway="1" modes="car" >
		</link>
		<link id="3995" from="26" to="32" length="67.65120089726729" freespeed="4.166666666666667" capacity="30.0" permlanes="1.0" oneway="1" modes="car" >
		</link>
		<link id="3996" from="32" to="26" length="67.65120089726729" freespeed="4.166666666666667" capacity="30.0" permlanes="1.0" oneway="1" modes="car" >
		</link>
		<link id="3997" from="36" to="18" length="166.38275152210468" freespeed="4.166666666666667" capacity="30.0" permlanes="1.0" oneway="1" modes="car" >
		</link>
		<link id="3998" from="18" to="36" length="166.38275152210468" freespeed="4.166666666666667" capacity="30.0" permlanes="1.0" oneway="1" modes="car" >
		</link>
		<link id="3999" from="24" to="12" length="26.586261119192432" freespeed="4.166666666666667" capacity="30.0" permlanes="1.0" oneway="1" modes="car" >
		</link>
		<link id="4000" from="12" to="24" length="26.586261119192432" freespeed="4.166666666666667" capacity="30.0" permlanes="1.0" oneway="1" modes="car" >
		</link>
		<link id="4001" from="686" to="19" length="63.97241292671524" freespeed="4.166666666666667" capacity="30.0" permlanes="1.0" oneway="1" modes="car" >
		</link>
		<link id="4002" from="19" to="686" length="63.97241292671524" freespeed="4.166666666666667" capacity="30.0" permlanes="1.0" oneway="1" modes="car" >
		</link>
		<link id="4003" from="17" to="412" length="44.145134548480065" freespeed="5.555555555555555" capacity="30.0" permlanes="1.0" oneway="1" modes="car" >
		</link>
		<link id="4004" from="412" to="17" length="44.145134548480065" freespeed="5.555555555555555" capacity="30.0" permlanes="1.0" oneway="1" modes="car" >
		</link>
		<link id="4005" from="412" to="817" length="47.069072539774744" freespeed="5.555555555555555" capacity="30.0" permlanes="1.0" oneway="1" modes="car" >
		</link>
		<link id="4006" from="245" to="686" length="54.97532071864994" freespeed="5.555555555555555" capacity="30.0" permlanes="1.0" oneway="1" modes="car" >
		</link>
		<link id="4007" from="686" to="245" length="54.97532071864994" freespeed="5.555555555555555" capacity="30.0" permlanes="1.0" oneway="1" modes="car" >
		</link>
		<link id="4008" from="686" to="16" length="56.083439362147374" freespeed="5.555555555555555" capacity="30.0" permlanes="1.0" oneway="1" modes="car" >
		</link>
		<link id="4009" from="16" to="686" length="56.083439362147374" freespeed="5.555555555555555" capacity="30.0" permlanes="1.0" oneway="1" modes="car" >
		</link>
		<link id="4010" from="16" to="687" length="75.30584507880006" freespeed="5.555555555555555" capacity="30.0" permlanes="1.0" oneway="1" modes="car" >
		</link>
		<link id="4011" from="687" to="16" length="75.30584507880006" freespeed="5.555555555555555" capacity="30.0" permlanes="1.0" oneway="1" modes="car" >
		</link>
		<link id="4012" from="817" to="412" length="47.069072539774744" freespeed="5.555555555555555" capacity="30.0" permlanes="1.0" oneway="1" modes="car" >
		</link>
		<link id="4013" from="817" to="216" length="8.24256033459382" freespeed="5.555555555555555" capacity="30.0" permlanes="1.0" oneway="1" modes="car" >
		</link>
		<link id="4014" from="216" to="817" length="8.24256033459382" freespeed="5.555555555555555" capacity="30.0" permlanes="1.0" oneway="1" modes="car" >
		</link>
		<link id="4015" from="216" to="217" length="63.36158242675596" freespeed="5.555555555555555" capacity="30.0" permlanes="1.0" oneway="1" modes="car" >
		</link>
		<link id="4016" from="217" to="216" length="63.36158242675596" freespeed="5.555555555555555" capacity="30.0" permlanes="1.0" oneway="1" modes="car" >
		</link>
		<link id="4017" from="217" to="1060" length="48.88267739475866" freespeed="5.555555555555555" capacity="30.0" permlanes="1.0" oneway="1" modes="car" >
		</link>
		<link id="4018" from="1060" to="217" length="48.88267739475866" freespeed="5.555555555555555" capacity="30.0" permlanes="1.0" oneway="1" modes="car" >
		</link>
		<link id="4019" from="1060" to="218" length="14.510213238525962" freespeed="5.555555555555555" capacity="30.0" permlanes="1.0" oneway="1" modes="car" >
		</link>
		<link id="4020" from="218" to="1060" length="14.510213238525962" freespeed="5.555555555555555" capacity="30.0" permlanes="1.0" oneway="1" modes="car" >
		</link>
		<link id="4021" from="218" to="1061" length="34.55782563966283" freespeed="5.555555555555555" capacity="30.0" permlanes="1.0" oneway="1" modes="car" >
		</link>
		<link id="4022" from="1061" to="218" length="34.55782563966283" freespeed="5.555555555555555" capacity="30.0" permlanes="1.0" oneway="1" modes="car" >
		</link>
		<link id="4023" from="1061" to="1062" length="37.11291600349584" freespeed="5.555555555555555" capacity="30.0" permlanes="1.0" oneway="1" modes="car" >
		</link>
		<link id="4024" from="1062" to="1061" length="37.11291600349584" freespeed="5.555555555555555" capacity="30.0" permlanes="1.0" oneway="1" modes="car" >
		</link>
		<link id="4025" from="1062" to="488" length="13.21245397730717" freespeed="5.555555555555555" capacity="30.0" permlanes="1.0" oneway="1" modes="car" >
		</link>
		<link id="4026" from="488" to="1062" length="13.21245397730717" freespeed="5.555555555555555" capacity="30.0" permlanes="1.0" oneway="1" modes="car" >
		</link>
		<link id="4027" from="488" to="245" length="3.297378917534316" freespeed="5.555555555555555" capacity="30.0" permlanes="1.0" oneway="1" modes="car" >
		</link>
		<link id="4028" from="245" to="488" length="3.297378917534316" freespeed="5.555555555555555" capacity="30.0" permlanes="1.0" oneway="1" modes="car" >
		</link>
		<link id="4029" from="15" to="26" length="65.22295904275248" freespeed="4.166666666666667" capacity="30.0" permlanes="1.0" oneway="1" modes="car" >
		</link>
		<link id="4030" from="26" to="15" length="65.22295904275248" freespeed="4.166666666666667" capacity="30.0" permlanes="1.0" oneway="1" modes="car" >
		</link>
		<link id="4031" from="26" to="32" length="43.665142626063" freespeed="4.166666666666667" capacity="30.0" permlanes="1.0" oneway="1" modes="car" >
		</link>
		<link id="4032" from="32" to="26" length="43.665142626063" freespeed="4.166666666666667" capacity="30.0" permlanes="1.0" oneway="1" modes="car" >
		</link>
		<link id="4033" from="32" to="685" length="3.870574967985438" freespeed="4.166666666666667" capacity="30.0" permlanes="1.0" oneway="1" modes="car" >
		</link>
		<link id="4034" from="685" to="32" length="3.870574967985438" freespeed="4.166666666666667" capacity="30.0" permlanes="1.0" oneway="1" modes="car" >
		</link>
		<link id="4035" from="685" to="834" length="46.904253871981616" freespeed="4.166666666666667" capacity="30.0" permlanes="1.0" oneway="1" modes="car" >
		</link>
		<link id="4036" from="834" to="685" length="46.904253871981616" freespeed="4.166666666666667" capacity="30.0" permlanes="1.0" oneway="1" modes="car" >
		</link>
		<link id="4037" from="28" to="28" length="63.29036562727729" freespeed="4.166666666666667" capacity="30.0" permlanes="1.0" oneway="1" modes="car" >
		</link>
		<link id="4038" from="28" to="28" length="63.29036562727729" freespeed="4.166666666666667" capacity="30.0" permlanes="1.0" oneway="1" modes="car" >
		</link>
		<link id="4039" from="28" to="835" length="13.348842675551603" freespeed="4.166666666666667" capacity="30.0" permlanes="1.0" oneway="1" modes="car" >
		</link>
		<link id="4040" from="835" to="28" length="13.348842675551603" freespeed="4.166666666666667" capacity="30.0" permlanes="1.0" oneway="1" modes="car" >
		</link>
		<link id="4041" from="10" to="29" length="92.01307709995699" freespeed="4.166666666666667" capacity="30.0" permlanes="1.0" oneway="1" modes="car" >
		</link>
		<link id="4042" from="29" to="10" length="92.01307709995699" freespeed="4.166666666666667" capacity="30.0" permlanes="1.0" oneway="1" modes="car" >
		</link>
		<link id="4043" from="20" to="33" length="63.87683128690852" freespeed="4.166666666666667" capacity="30.0" permlanes="1.0" oneway="1" modes="car" >
		</link>
		<link id="4044" from="33" to="20" length="63.87683128690852" freespeed="4.166666666666667" capacity="30.0" permlanes="1.0" oneway="1" modes="car" >
		</link>
		<link id="4045" from="832" to="15" length="27.235007246437448" freespeed="5.555555555555555" capacity="30.0" permlanes="1.0" oneway="1" modes="car" >
		</link>
		<link id="4046" from="15" to="17" length="32.28348454002884" freespeed="5.555555555555555" capacity="30.0" permlanes="1.0" oneway="1" modes="car" >
		</link>
		<link id="4047" from="490" to="24" length="31.06845996274088" freespeed="4.166666666666667" capacity="30.0" permlanes="1.0" oneway="1" modes="car" >
		</link>
		<link id="4048" from="24" to="490" length="31.06845996274088" freespeed="4.166666666666667" capacity="30.0" permlanes="1.0" oneway="1" modes="car" >
		</link>
		<link id="4049" from="24" to="30" length="14.205787093016593" freespeed="4.166666666666667" capacity="30.0" permlanes="1.0" oneway="1" modes="car" >
		</link>
		<link id="4050" from="30" to="24" length="14.205787093016593" freespeed="4.166666666666667" capacity="30.0" permlanes="1.0" oneway="1" modes="car" >
		</link>
		<link id="4051" from="30" to="34" length="9.058115006308471" freespeed="4.166666666666667" capacity="30.0" permlanes="1.0" oneway="1" modes="car" >
		</link>
		<link id="4052" from="34" to="30" length="9.058115006308471" freespeed="4.166666666666667" capacity="30.0" permlanes="1.0" oneway="1" modes="car" >
		</link>
		<link id="4053" from="34" to="836" length="6.764884827432235" freespeed="4.166666666666667" capacity="30.0" permlanes="1.0" oneway="1" modes="car" >
		</link>
		<link id="4054" from="836" to="34" length="6.764884827432235" freespeed="4.166666666666667" capacity="30.0" permlanes="1.0" oneway="1" modes="car" >
		</link>
		<link id="4055" from="836" to="16" length="56.932995960377134" freespeed="4.166666666666667" capacity="30.0" permlanes="1.0" oneway="1" modes="car" >
		</link>
		<link id="4056" from="16" to="836" length="56.932995960377134" freespeed="4.166666666666667" capacity="30.0" permlanes="1.0" oneway="1" modes="car" >
		</link>
		<link id="4057" from="11" to="9" length="33.813231915137365" freespeed="4.166666666666667" capacity="30.0" permlanes="1.0" oneway="1" modes="car" >
		</link>
		<link id="4058" from="9" to="11" length="33.813231915137365" freespeed="4.166666666666667" capacity="30.0" permlanes="1.0" oneway="1" modes="car" >
		</link>
		<link id="4059" from="22" to="408" length="32.82308902634426" freespeed="4.166666666666667" capacity="30.0" permlanes="1.0" oneway="1" modes="car" >
		</link>
		<link id="4060" from="408" to="22" length="32.82308902634426" freespeed="4.166666666666667" capacity="30.0" permlanes="1.0" oneway="1" modes="car" >
		</link>
		<link id="4061" from="408" to="8" length="8.158355823511554" freespeed="4.166666666666667" capacity="30.0" permlanes="1.0" oneway="1" modes="car" >
		</link>
		<link id="4062" from="8" to="408" length="8.158355823511554" freespeed="4.166666666666667" capacity="30.0" permlanes="1.0" oneway="1" modes="car" >
		</link>
		<link id="4063" from="8" to="409" length="8.521078405982381" freespeed="4.166666666666667" capacity="30.0" permlanes="1.0" oneway="1" modes="car" >
		</link>
		<link id="4064" from="409" to="8" length="8.521078405982381" freespeed="4.166666666666667" capacity="30.0" permlanes="1.0" oneway="1" modes="car" >
		</link>
		<link id="4065" from="409" to="10" length="11.049159054381454" freespeed="4.166666666666667" capacity="30.0" permlanes="1.0" oneway="1" modes="car" >
		</link>
		<link id="4066" from="10" to="409" length="11.049159054381454" freespeed="4.166666666666667" capacity="30.0" permlanes="1.0" oneway="1" modes="car" >
		</link>
		<link id="4067" from="10" to="29" length="9.203356417151367" freespeed="4.166666666666667" capacity="30.0" permlanes="1.0" oneway="1" modes="car" >
		</link>
		<link id="4068" from="29" to="10" length="9.203356417151367" freespeed="4.166666666666667" capacity="30.0" permlanes="1.0" oneway="1" modes="car" >
		</link>
		<link id="4069" from="29" to="410" length="20.264154441476457" freespeed="4.166666666666667" capacity="30.0" permlanes="1.0" oneway="1" modes="car" >
		</link>
		<link id="4070" from="410" to="29" length="20.264154441476457" freespeed="4.166666666666667" capacity="30.0" permlanes="1.0" oneway="1" modes="car" >
		</link>
		<link id="4071" from="410" to="13" length="68.41577016558148" freespeed="4.166666666666667" capacity="30.0" permlanes="1.0" oneway="1" modes="car" >
		</link>
		<link id="4072" from="13" to="410" length="68.41577016558148" freespeed="4.166666666666667" capacity="30.0" permlanes="1.0" oneway="1" modes="car" >
		</link>
		<link id="4073" from="13" to="411" length="77.60093881983892" freespeed="4.166666666666667" capacity="30.0" permlanes="1.0" oneway="1" modes="car" >
		</link>
		<link id="4074" from="411" to="13" length="77.60093881983892" freespeed="4.166666666666667" capacity="30.0" permlanes="1.0" oneway="1" modes="car" >
		</link>
		<link id="4075" from="411" to="409" length="38.436371916702186" freespeed="4.166666666666667" capacity="30.0" permlanes="1.0" oneway="1" modes="car" >
		</link>
		<link id="4076" from="409" to="411" length="38.436371916702186" freespeed="4.166666666666667" capacity="30.0" permlanes="1.0" oneway="1" modes="car" >
		</link>
		<link id="4077" from="21" to="23" length="40.07850315439355" freespeed="4.166666666666667" capacity="30.0" permlanes="1.0" oneway="1" modes="car" >
		</link>
		<link id="4078" from="23" to="21" length="40.07850315439355" freespeed="4.166666666666667" capacity="30.0" permlanes="1.0" oneway="1" modes="car" >
		</link>
		<link id="4079" from="1184" to="185" length="162.5678644145853" freespeed="13.88888888888889" capacity="150.0" permlanes="1.0" oneway="1" modes="car" >
		</link>
	</links>

<!-- ====================================================================== -->

</network>
