<?xml version="1.0" encoding="utf-8"?>
<!DOCTYPE population SYSTEM "http://www.matsim.org/files/dtd/population_v6.dtd">

<population>



<!-- ====================================================================== -->

	<person id="0">
		<plan score="98.15280658467644" selected="no">
			<activity type="h" link="1860" x="-180993.33696115474" y="6125559.9771642275" end_time="09:00:00" >
			</activity>
			<leg mode="car" dep_time="09:00:00" trav_time="00:04:04">
				<route type="links" start_link="1860" end_link="3144" trav_time="00:04:04" distance="2759.06907171511">1860 1861 1859 3944 3945 3946 3947 3948 2289 2290 2291 3949 3273 3282 3952 3953 3954 3940 3260 3262 1592 3950 3951 3100 3861 3879 2339 1984 1990 1991 2373 2380 2381 2382 3782 3759 3781 3765 2313 2314 2315 2316 3937 3935 3933 3931 3929 2493 2494 2495 3147 3145 3144</route>
			</leg>
			<activity type="h" link="3144" x="-183669.06298573856" y="6126244.02264525" end_time="16:30:00" >
			</activity>
			<leg mode="car" dep_time="16:30:00" trav_time="00:02:18">
				<route type="links" start_link="3144" end_link="1860" trav_time="00:02:18" distance="1967.9846142917136">3144 2476 3928 3930 3932 3934 3936 2336 2337 2338 2347 2902 3783 3775 3773 3769 3770 3771 3772 2312 2372 3602 2235 1992 3873 3875 3284 3101 1886 1890 1892 1894 3103 3941 3254 3256 3283 3943 1858 1860</route>
			</leg>
			<activity type="h" link="1860" x="-180993.33696115474" y="6125559.9771642275" >
			</activity>
		</plan>

		<plan score="96.80044008419118" selected="yes">
			<activity type="h" link="1860" x="-180993.33696115474" y="6125559.9771642275" end_time="09:00:00" >
			</activity>
			<leg mode="car" dep_time="09:00:00" trav_time="00:31:56">
				<route type="links" start_link="1860" end_link="3144" trav_time="00:31:56" distance="3978.7941500781017">1860 1861 1859 3944 3945 3946 3947 3948 2289 2290 2291 3949 3274 3276 3278 3266 3268 3270 3282 3952 3953 3954 3940 3259 3257 3255 3265 1592 3950 3951 3100 3861 1989 2807 3919 2817 1594 1595 1596 1597 3112 3113 2684 2689 2690 2687 3366 3364 3362 3360 3358 3356 3654 3704 3017 3015 2670 1917 1915 1913 1911 1909 1907 3216 3218 1591 1589 1587 3187 3380 3378 3061 1598 1604 2949 2950 2951 3145 3144</route>
			</leg>
			<activity type="h" link="3144" x="-183669.06298573856" y="6126244.02264525" end_time="16:30:00" >
			</activity>
			<leg mode="car" dep_time="16:30:00" trav_time="00:02:27">
				<route type="links" start_link="3144" end_link="1860" trav_time="00:02:27" distance="1967.9846142917136">3144 2476 3928 3930 3932 3934 3936 2336 2337 2338 2347 2902 3783 3775 3773 3769 3770 3771 3772 2312 2372 3602 2235 1992 3873 3875 3284 3101 1886 1890 1892 1894 3103 3941 3254 3256 3283 3943 1858 1860</route>
			</leg>
			<activity type="h" link="1860" x="-180993.33696115474" y="6125559.9771642275" >
			</activity>
		</plan>

	</person>

<!-- ====================================================================== -->

	<person id="1">
		<plan score="102.86494910403273" selected="yes">
			<activity type="h" link="1860" x="-180993.33696115474" y="6125559.9771642275" end_time="08:00:00" >
			</activity>
			<leg mode="car" dep_time="08:00:00" trav_time="00:04:04">
				<route type="links" start_link="1860" end_link="3144" trav_time="00:04:04" distance="2759.06907171511">1860 1861 1859 3944 3945 3946 3947 3948 2289 2290 2291 3949 3273 3282 3952 3953 3954 3940 3260 3262 1592 3950 3951 3100 3861 3879 2339 1984 1990 1991 2373 2380 2381 2382 3782 3759 3781 3765 2313 2314 2315 2316 3937 3935 3933 3931 3929 2493 2494 2495 3147 3145 3144</route>
			</leg>
			<activity type="h" link="3144" x="-183669.06298573856" y="6126244.02264525" end_time="17:30:00" >
			</activity>
			<leg mode="car" dep_time="17:30:00" trav_time="00:02:18">
				<route type="links" start_link="3144" end_link="1860" trav_time="00:02:18" distance="1967.9846142917136">3144 2476 3928 3930 3932 3934 3936 2336 2337 2338 2347 2902 3783 3775 3773 3769 3770 3771 3772 2312 2372 3602 2235 1992 3873 3875 3284 3101 1886 1890 1892 1894 3103 3941 3254 3256 3283 3943 1858 1860</route>
			</leg>
			<activity type="h" link="1860" x="-180993.33696115474" y="6125559.9771642275" >
			</activity>
		</plan>

	</person>

<!-- ====================================================================== -->

	<person id="10">
		<plan score="110.04081301994697" selected="yes">
			<activity type="h" link="3855" x="-181130.4874084175" y="6126447.368895479" end_time="08:00:00" >
			</activity>
			<leg mode="car" dep_time="08:00:00" trav_time="00:03:05">
				<route type="links" start_link="3855" end_link="3144" trav_time="00:03:05" distance="2398.0416502265207">3855 3856 3854 3852 3850 1732 1730 1728 1726 1724 3579 3577 3585 3323 2816 3918 3650 2194 2339 1984 1990 1991 2373 2380 2381 2382 3782 3759 3781 3765 2313 2314 2315 2316 3937 3935 3933 3931 3929 2493 2494 2495 3147 3145 3144</route>
			</leg>
			<activity type="h" link="3144" x="-183669.06298573856" y="6126244.02264525" end_time="17:30:00" >
			</activity>
			<leg mode="car" dep_time="17:30:00" trav_time="00:02:22">
				<route type="links" start_link="3144" end_link="3855" trav_time="00:02:22" distance="2278.594974099594">3144 2476 3928 3930 3932 3934 3936 2336 2337 2338 2347 2902 3783 3775 3773 3769 3770 3771 3772 2312 2372 3602 2235 1992 3878 2340 3880 1989 2807 3919 2817 3324 3584 3576 3578 1723 1725 1727 1729 1731 3849 3851 3853 3855</route>
			</leg>
			<activity type="h" link="3855" x="-181130.4874084175" y="6126447.368895479" >
			</activity>
		</plan>

	</person>

<!-- ====================================================================== -->

	<person id="100">
		<plan score="115.2853441804406" selected="no">
			<activity type="h" link="2495" x="-183497.41805914562" y="6126070.215517037" end_time="08:26:00" >
			</activity>
			<leg mode="car" dep_time="08:26:00" trav_time="00:00:54">
				<route type="links" start_link="2495" end_link="3569" trav_time="00:00:54" distance="872.1832504228097">2495 3147 2476 3928 3930 3932 3934 3936 2336 2337 2338 2347 3752 3768 3569</route>
			</leg>
			<activity type="h" link="3569" x="-182602.90011961438" y="6125167.238166925" end_time="18:26:00" >
			</activity>
			<leg mode="car" dep_time="18:26:00" trav_time="00:00:52">
				<route type="links" start_link="3569" end_link="2495" trav_time="00:00:52" distance="875.5663246046688">3569 3751 3757 3774 3758 3766 3779 3765 2313 2314 2315 2316 3937 3935 3933 3931 3929 2493 2494 2495</route>
			</leg>
			<activity type="h" link="2495" x="-183497.41805914562" y="6126070.215517037" >
			</activity>
		</plan>

		<plan score="116.91047043032762" selected="yes">
			<activity type="h" link="2495" x="-183497.41805914562" y="6126070.215517037" end_time="08:26:00" >
			</activity>
			<leg mode="car" dep_time="08:26:00" trav_time="00:05:19">
				<route type="links" start_link="2495" end_link="3569" trav_time="00:05:19" distance="1048.0395422804997">2495 3148 3150 3152 3154 3156 2886 2884 2013 1517 3656 3936 2336 2337 2338 2347 3752 3768 3569</route>
			</leg>
			<activity type="h" link="3569" x="-182602.90011961438" y="6125167.238166925" end_time="18:26:00" >
			</activity>
			<leg mode="car" dep_time="18:26:00" trav_time="00:01:04">
				<route type="links" start_link="3569" end_link="2495" trav_time="00:01:04" distance="891.626598718894">3569 3751 3757 3774 3764 3763 3761 3760 3755 3765 2313 2314 2315 2316 3937 3935 3933 3931 3929 2493 2494 2495</route>
			</leg>
			<activity type="h" link="2495" x="-183497.41805914562" y="6126070.215517037" >
			</activity>
		</plan>

	</person>

<!-- ====================================================================== -->

	<person id="101">
		<plan score="122.34095999879776" selected="no">
			<activity type="h" link="2495" x="-183497.41805914562" y="6126070.215517037" end_time="08:53:00" >
			</activity>
			<leg mode="car" dep_time="08:53:00" trav_time="00:02:18">
				<route type="links" start_link="2495" end_link="1860" trav_time="00:02:18" distance="1977.6210610337519">2495 3147 2476 3928 3930 3932 3934 3936 2336 2337 2338 2347 2902 3783 3775 3773 3769 3770 3771 3772 2312 2372 3602 2235 1992 3873 3875 3284 3101 1886 1890 1892 1894 3103 3941 3254 3256 3283 3943 1858 1860</route>
			</leg>
			<activity type="h" link="1860" x="-181117.81140456753" y="6125189.377313704" end_time="17:57:00" >
			</activity>
			<leg mode="car" dep_time="17:57:00" trav_time="00:03:55">
				<route type="links" start_link="1860" end_link="2495" trav_time="00:03:55" distance="2599.8242181777573">1860 1861 1859 3944 3945 3946 3947 3948 2289 2290 2291 3949 3273 3282 3952 3953 3954 3940 3260 3262 1592 3950 3951 3100 3861 3879 2339 1984 1990 1991 2373 2380 2381 2382 3782 3759 3781 3765 2313 2314 2315 2316 3937 3935 3933 3931 3929 2493 2494 2495</route>
			</leg>
			<activity type="h" link="2495" x="-183497.41805914562" y="6126070.215517037" >
			</activity>
		</plan>

		<plan score="123.01842523758864" selected="no">
			<activity type="h" link="2495" x="-183497.41805914562" y="6126070.215517037" end_time="08:53:00" >
			</activity>
			<leg mode="car" dep_time="08:53:00" trav_time="00:37:19">
				<route type="links" start_link="2495" end_link="1860" trav_time="00:37:19" distance="2777.2962126521106">2495 2946 2947 1554 2953 3379 3186 3188 3495 3497 3499 3501 3503 3028 3030 3032 3034 3036 3038 3040 2647 3756 3780 3778 3777 3776 3783 3775 3773 3769 3770 3771 3772 2312 2372 3602 2235 1992 3873 3875 3284 3101 1886 1890 1892 1894 3103 3941 3254 3256 3283 3943 1858 1860</route>
			</leg>
			<activity type="h" link="1860" x="-181117.81140456753" y="6125189.377313704" end_time="17:57:00" >
			</activity>
			<leg mode="car" dep_time="17:57:00" trav_time="00:04:20">
				<route type="links" start_link="1860" end_link="2495" trav_time="00:04:20" distance="2640.9927472071763">1860 1861 1859 3944 3945 3946 3947 3948 2289 2290 2291 3949 3273 3282 3952 3953 3954 3940 3260 3262 1592 3950 3951 3100 3872 3876 3874 3878 1984 1990 1991 2373 2380 2381 2382 3754 3762 3766 3779 3765 2313 2314 2315 2316 3937 3935 3933 3931 3929 2493 2494 2495</route>
			</leg>
			<activity type="h" link="2495" x="-183497.41805914562" y="6126070.215517037" >
			</activity>
		</plan>

		<plan score="122.74323043701236" selected="yes">
			<activity type="h" link="2495" x="-183497.41805914562" y="6126070.215517037" end_time="08:53:00" >
			</activity>
			<leg mode="car" dep_time="08:53:00" trav_time="00:37:46">
				<route type="links" start_link="2495" end_link="1860" trav_time="00:37:46" distance="2829.5661074050836">2495 2946 2947 1554 2953 3379 3186 3188 3495 3497 3499 3501 3503 3028 3030 3032 3034 3036 3038 3040 1504 1506 1508 1510 1512 1514 3083 3081 3079 3077 1985 1987 2378 2376 3601 2372 3602 2235 1992 3873 3875 3284 3101 3102 3103 3941 3254 3256 3283 3943 1858 1860</route>
			</leg>
			<activity type="h" link="1860" x="-181117.81140456753" y="6125189.377313704" end_time="17:57:00" >
			</activity>
			<leg mode="car" dep_time="17:57:00" trav_time="00:04:17">
				<route type="links" start_link="1860" end_link="2495" trav_time="00:04:17" distance="2599.8242181777573">1860 1861 1859 3944 3945 3946 3947 3948 2289 2290 2291 3949 3273 3282 3952 3953 3954 3940 3260 3262 1592 3950 3951 3100 3861 3879 2339 1984 1990 1991 2373 2380 2381 2382 3782 3759 3781 3765 2313 2314 2315 2316 3937 3935 3933 3931 3929 2493 2494 2495</route>
			</leg>
			<activity type="h" link="2495" x="-183497.41805914562" y="6126070.215517037" >
			</activity>
		</plan>

	</person>

<!-- ====================================================================== -->

	<person id="102">
		<plan score="104.70221818642405" selected="no">
			<activity type="h" link="2495" x="-183497.41805914562" y="6126070.215517037" end_time="08:58:00" >
			</activity>
			<leg mode="car" dep_time="08:58:00" trav_time="00:00:54">
				<route type="links" start_link="2495" end_link="3569" trav_time="00:00:54" distance="872.1832504228097">2495 3147 2476 3928 3930 3932 3934 3936 2336 2337 2338 2347 3752 3768 3569</route>
			</leg>
			<activity type="h" link="3569" x="-182602.90011961438" y="6125167.238166925" end_time="18:40:00" >
			</activity>
			<leg mode="car" dep_time="18:40:00" trav_time="00:00:52">
				<route type="links" start_link="3569" end_link="2495" trav_time="00:00:52" distance="875.5663246046688">3569 3751 3757 3774 3758 3766 3779 3765 2313 2314 2315 2316 3937 3935 3933 3931 3929 2493 2494 2495</route>
			</leg>
			<activity type="h" link="2495" x="-183497.41805914562" y="6126070.215517037" >
			</activity>
		</plan>

		<plan score="104.130695846211" selected="yes">
			<activity type="h" link="2495" x="-183497.41805914562" y="6126070.215517037" end_time="08:58:00" >
			</activity>
			<leg mode="car" dep_time="08:58:00" trav_time="00:04:36">
				<route type="links" start_link="2495" end_link="3569" trav_time="00:04:36" distance="1677.1680761870803">2495 2946 2947 1554 2953 3379 3186 3188 3495 3497 3499 3501 3503 3028 3030 3032 3034 3036 3038 3040 2647 3756 3780 3778 3777 3776 3784 3768 3569</route>
			</leg>
			<activity type="h" link="3569" x="-182602.90011961438" y="6125167.238166925" end_time="18:40:00" >
			</activity>
			<leg mode="car" dep_time="18:40:00" trav_time="00:01:12">
				<route type="links" start_link="3569" end_link="2495" trav_time="00:01:12" distance="891.626598718894">3569 3751 3757 3774 3764 3763 3761 3760 3755 3765 2313 2314 2315 2316 3937 3935 3933 3931 3929 2493 2494 2495</route>
			</leg>
			<activity type="h" link="2495" x="-183497.41805914562" y="6126070.215517037" >
			</activity>
		</plan>

	</person>

<!-- ====================================================================== -->

	<person id="103">
		<plan score="112.59795652050093" selected="no">
			<activity type="h" link="2495" x="-183497.41805914562" y="6126070.215517037" end_time="08:04:00" >
			</activity>
			<leg mode="car" dep_time="08:04:00" trav_time="00:00:54">
				<route type="links" start_link="2495" end_link="3569" trav_time="00:00:54" distance="872.1832504228097">2495 3147 2476 3928 3930 3932 3934 3936 2336 2337 2338 2347 3752 3768 3569</route>
			</leg>
			<activity type="h" link="3569" x="-182602.90011961438" y="6125167.238166925" end_time="18:27:00" >
			</activity>
			<leg mode="car" dep_time="18:27:00" trav_time="00:00:52">
				<route type="links" start_link="3569" end_link="2495" trav_time="00:00:52" distance="875.5663246046688">3569 3751 3757 3774 3758 3766 3779 3765 2313 2314 2315 2316 3937 3935 3933 3931 3929 2493 2494 2495</route>
			</leg>
			<activity type="h" link="2495" x="-183497.41805914562" y="6126070.215517037" >
			</activity>
		</plan>

		<plan score="113.88900815177192" selected="yes">
			<activity type="h" link="2495" x="-183497.41805914562" y="6126070.215517037" end_time="08:04:00" >
			</activity>
			<leg mode="car" dep_time="08:04:00" trav_time="00:02:00">
				<route type="links" start_link="2495" end_link="3569" trav_time="00:02:00" distance="1048.0395422804997">2495 3148 3150 3152 3154 3156 2886 2884 2013 1517 3656 3936 2336 2337 2338 2347 3752 3768 3569</route>
			</leg>
			<activity type="h" link="3569" x="-182602.90011961438" y="6125167.238166925" end_time="18:27:00" >
			</activity>
			<leg mode="car" dep_time="18:27:00" trav_time="00:01:04">
				<route type="links" start_link="3569" end_link="2495" trav_time="00:01:04" distance="891.626598718894">3569 3751 3757 3774 3764 3763 3761 3760 3755 3765 2313 2314 2315 2316 3937 3935 3933 3931 3929 2493 2494 2495</route>
			</leg>
			<activity type="h" link="2495" x="-183497.41805914562" y="6126070.215517037" >
			</activity>
		</plan>

	</person>

<!-- ====================================================================== -->

	<person id="104">
		<plan score="115.69257848440378" selected="no">
			<activity type="h" link="2495" x="-183497.41805914562" y="6126070.215517037" end_time="08:47:00" >
			</activity>
			<leg mode="car" dep_time="08:47:00" trav_time="00:00:54">
				<route type="links" start_link="2495" end_link="3569" trav_time="00:00:54" distance="872.1832504228097">2495 3147 2476 3928 3930 3932 3934 3936 2336 2337 2338 2347 3752 3768 3569</route>
			</leg>
			<activity type="h" link="3569" x="-182602.90011961438" y="6125167.238166925" end_time="18:25:00" >
			</activity>
			<leg mode="car" dep_time="18:25:00" trav_time="00:00:52">
				<route type="links" start_link="3569" end_link="2495" trav_time="00:00:52" distance="875.5663246046688">3569 3751 3757 3774 3758 3766 3779 3765 2313 2314 2315 2316 3937 3935 3933 3931 3929 2493 2494 2495</route>
			</leg>
			<activity type="h" link="2495" x="-183497.41805914562" y="6126070.215517037" >
			</activity>
		</plan>

		<plan score="115.49583175462394" selected="no">
			<activity type="h" link="2495" x="-183497.41805914562" y="6126070.215517037" end_time="08:47:00" >
			</activity>
			<leg mode="car" dep_time="08:47:00" trav_time="00:09:59">
				<route type="links" start_link="2495" end_link="3569" trav_time="00:09:59" distance="1677.1680761870803">2495 2946 2947 1554 2953 3379 3186 3188 3495 3497 3499 3501 3503 3028 3030 3032 3034 3036 3038 3040 2647 3756 3780 3778 3777 3776 3784 3768 3569</route>
			</leg>
			<activity type="h" link="3569" x="-182602.90011961438" y="6125167.238166925" end_time="18:25:00" >
			</activity>
			<leg mode="car" dep_time="18:25:00" trav_time="00:01:04">
				<route type="links" start_link="3569" end_link="2495" trav_time="00:01:04" distance="891.626598718894">3569 3751 3757 3774 3764 3763 3761 3760 3755 3765 2313 2314 2315 2316 3937 3935 3933 3931 3929 2493 2494 2495</route>
			</leg>
			<activity type="h" link="2495" x="-183497.41805914562" y="6126070.215517037" >
			</activity>
		</plan>

		<plan score="115.74628323783615" selected="yes">
			<activity type="h" link="2495" x="-183497.41805914562" y="6126070.215517037" end_time="08:47:00" >
			</activity>
			<leg mode="car" dep_time="08:47:00" trav_time="00:17:25">
				<route type="links" start_link="2495" end_link="3569" trav_time="00:17:25" distance="1800.9766305526273">2495 2946 2947 1554 2953 3379 3186 1586 1588 1590 3219 3217 3215 1582 1584 3181 3179 3177 2662 2664 2660 2658 3587 3028 3030 3032 3034 3036 3038 3040 2647 3756 3780 3778 3777 3776 3784 3768 3569</route>
			</leg>
			<activity type="h" link="3569" x="-182602.90011961438" y="6125167.238166925" end_time="18:25:00" >
			</activity>
			<leg mode="car" dep_time="18:25:00" trav_time="00:01:04">
				<route type="links" start_link="3569" end_link="2495" trav_time="00:01:04" distance="891.626598718894">3569 3751 3757 3774 3764 3763 3761 3760 3755 3765 2313 2314 2315 2316 3937 3935 3933 3931 3929 2493 2494 2495</route>
			</leg>
			<activity type="h" link="2495" x="-183497.41805914562" y="6126070.215517037" >
			</activity>
		</plan>

	</person>

<!-- ====================================================================== -->

	<person id="105">
		<plan score="123.12517870960633" selected="no">
			<activity type="h" link="2495" x="-183497.41805914562" y="6126070.215517037" end_time="09:14:00" >
			</activity>
			<leg mode="car" dep_time="09:14:00" trav_time="00:02:18">
				<route type="links" start_link="2495" end_link="1860" trav_time="00:02:18" distance="1977.6210610337519">2495 3147 2476 3928 3930 3932 3934 3936 2336 2337 2338 2347 2902 3783 3775 3773 3769 3770 3771 3772 2312 2372 3602 2235 1992 3873 3875 3284 3101 1886 1890 1892 1894 3103 3941 3254 3256 3283 3943 1858 1860</route>
			</leg>
			<activity type="h" link="1860" x="-181117.81140456753" y="6125189.377313704" end_time="17:26:00" >
			</activity>
			<leg mode="car" dep_time="17:26:00" trav_time="00:03:55">
				<route type="links" start_link="1860" end_link="2495" trav_time="00:03:55" distance="2599.8242181777573">1860 1861 1859 3944 3945 3946 3947 3948 2289 2290 2291 3949 3273 3282 3952 3953 3954 3940 3260 3262 1592 3950 3951 3100 3861 3879 2339 1984 1990 1991 2373 2380 2381 2382 3782 3759 3781 3765 2313 2314 2315 2316 3937 3935 3933 3931 3929 2493 2494 2495</route>
			</leg>
			<activity type="h" link="2495" x="-183497.41805914562" y="6126070.215517037" >
			</activity>
		</plan>

		<plan score="123.13034667380583" selected="yes">
			<activity type="h" link="2495" x="-183497.41805914562" y="6126070.215517037" end_time="09:14:00" >
			</activity>
			<leg mode="car" dep_time="09:14:00" trav_time="00:26:27">
				<route type="links" start_link="2495" end_link="1860" trav_time="00:26:27" distance="2153.477352891442">2495 3148 3150 3152 3154 3156 2886 2884 2013 1517 3656 3936 2336 2337 2338 2347 2902 3783 3775 3773 3769 3770 3771 3772 2312 2372 3602 2235 1992 3873 3875 3284 3101 1886 1890 1892 1894 3103 3941 3254 3256 3283 3943 1858 1860</route>
			</leg>
			<activity type="h" link="1860" x="-181117.81140456753" y="6125189.377313704" end_time="17:26:00" >
			</activity>
			<leg mode="car" dep_time="17:26:00" trav_time="00:04:21">
				<route type="links" start_link="1860" end_link="2495" trav_time="00:04:21" distance="2612.0434730690263">1860 1861 1859 3944 3945 3946 3947 3948 2289 2290 2291 3949 3273 3282 3952 3953 3954 3940 3260 3262 1592 3950 3951 3100 3861 3879 2339 1984 1990 1991 2373 2380 2381 2382 3754 3761 3760 3755 3765 2313 2314 2315 2316 3937 3935 3933 3931 3929 2493 2494 2495</route>
			</leg>
			<activity type="h" link="2495" x="-183497.41805914562" y="6126070.215517037" >
			</activity>
		</plan>

	</person>

<!-- ====================================================================== -->

	<person id="106">
		<plan score="89.53932553976611" selected="no">
			<activity type="h" link="2495" x="-183497.41805914562" y="6126070.215517037" end_time="08:31:00" >
			</activity>
			<leg mode="car" dep_time="08:31:00" trav_time="00:03:00">
				<route type="links" start_link="2495" end_link="4055" trav_time="00:03:00" distance="2362.5256905941505">2495 3147 2476 3928 3930 3932 3934 3936 2336 2337 2338 2347 2902 3783 3775 3773 3769 3770 3771 3772 2312 2372 3602 2235 1992 3878 2340 3880 1989 2807 3919 2817 3324 3322 3318 3316 3314 3320 3846 3476 3480 3478 3084 3086 3088 4011 4056 4055</route>
			</leg>
			<activity type="h" link="4055" x="-181781.38888069193" y="6127108.636571161" end_time="18:52:00" >
			</activity>
			<leg mode="car" dep_time="18:52:00" trav_time="00:02:47">
				<route type="links" start_link="4055" end_link="2495" trav_time="00:02:47" distance="2199.225074520933">4055 4010 3089 3087 3085 3477 3479 3475 3845 3319 3313 3315 3317 3321 3323 2816 3918 3650 2194 2339 1984 1990 1991 2373 2380 2381 2382 3782 3759 3781 3765 2313 2314 2315 2316 3937 3935 3933 3931 3929 2493 2494 2495</route>
			</leg>
			<activity type="h" link="2495" x="-183497.41805914562" y="6126070.215517037" >
			</activity>
		</plan>

		<plan score="105.6394318771476" selected="no">
			<activity type="h" link="2495" x="-183497.41805914562" y="6126070.215517037" end_time="08:31:00" >
			</activity>
			<leg mode="car" dep_time="08:31:00" trav_time="00:05:38">
				<route type="links" start_link="2495" end_link="4055" trav_time="00:05:38" distance="3491.011570162254">2495 2946 2947 1554 2953 2954 2955 1602 1600 1961 1963 1965 2425 2432 2433 2403 2428 2423 2411 2413 2415 2431 2959 2957 2870 2968 2966 2964 2962 2802 2334 2335 2868 2341 2343 2345 3487 2861 3572 2960 2352 2354 3094 2803 2805 2827 2829 2831 2833 2835 2837 2839 2980 2981 2479 1958 2990 2993 1960 3481 3841 3477 3334 3332 4059 4061 4063 4065 4067 4069 4071 3991 4047 4049 4051 4053 4055</route>
			</leg>
			<activity type="h" link="4055" x="-181781.38888069193" y="6127108.636571161" end_time="18:52:00" >
			</activity>
			<leg mode="car" dep_time="18:52:00" trav_time="00:03:04">
				<route type="links" start_link="4055" end_link="2495" trav_time="00:03:04" distance="2206.7940962935336">4055 4010 3089 3087 3085 3477 3479 3475 3845 3319 3313 3315 3317 3321 3323 2816 3918 3650 2194 2339 1984 1990 1991 2373 2380 2381 2382 3754 3762 3766 3779 3765 2313 2314 2315 2316 3937 3935 3933 3931 3929 2493 2494 2495</route>
			</leg>
			<activity type="h" link="2495" x="-183497.41805914562" y="6126070.215517037" >
			</activity>
		</plan>

		<plan score="103.65094141151091" selected="yes">
			<activity type="h" link="2495" x="-183497.41805914562" y="6126070.215517037" end_time="08:31:00" >
			</activity>
			<leg mode="car" dep_time="08:31:00" trav_time="00:19:10">
				<route type="links" start_link="2495" end_link="4055" trav_time="00:19:10" distance="2106.6967047689313">2495 2946 2947 1554 2953 3379 3186 1586 1588 1590 3219 3217 1906 1908 1910 1912 1914 1916 2669 3014 3016 3703 3653 3355 3357 3359 3361 3363 4045 4029 4031 4033 2218 2216 4047 4049 4051 4053 4055</route>
			</leg>
			<activity type="h" link="4055" x="-181781.38888069193" y="6127108.636571161" end_time="18:52:00" >
			</activity>
			<leg mode="car" dep_time="18:52:00" trav_time="00:03:04">
				<route type="links" start_link="4055" end_link="2495" trav_time="00:03:04" distance="2206.7940962935336">4055 4010 3089 3087 3085 3477 3479 3475 3845 3319 3313 3315 3317 3321 3323 2816 3918 3650 2194 2339 1984 1990 1991 2373 2380 2381 2382 3754 3762 3766 3779 3765 2313 2314 2315 2316 3937 3935 3933 3931 3929 2493 2494 2495</route>
			</leg>
			<activity type="h" link="2495" x="-183497.41805914562" y="6126070.215517037" >
			</activity>
		</plan>

	</person>

<!-- ====================================================================== -->

	<person id="107">
		<plan score="96.28284750851141" selected="yes">
			<activity type="h" link="2495" x="-183497.41805914562" y="6126070.215517037" end_time="08:59:00" >
			</activity>
			<leg mode="car" dep_time="08:59:00" trav_time="00:03:00">
				<route type="links" start_link="2495" end_link="4055" trav_time="00:03:00" distance="2362.5256905941505">2495 3147 2476 3928 3930 3932 3934 3936 2336 2337 2338 2347 2902 3783 3775 3773 3769 3770 3771 3772 2312 2372 3602 2235 1992 3878 2340 3880 1989 2807 3919 2817 3324 3322 3318 3316 3314 3320 3846 3476 3480 3478 3084 3086 3088 4011 4056 4055</route>
			</leg>
			<activity type="h" link="4055" x="-181781.38888069193" y="6127108.636571161" end_time="18:56:00" >
			</activity>
			<leg mode="car" dep_time="18:56:00" trav_time="00:02:47">
				<route type="links" start_link="4055" end_link="2495" trav_time="00:02:47" distance="2199.225074520933">4055 4010 3089 3087 3085 3477 3479 3475 3845 3319 3313 3315 3317 3321 3323 2816 3918 3650 2194 2339 1984 1990 1991 2373 2380 2381 2382 3782 3759 3781 3765 2313 2314 2315 2316 3937 3935 3933 3931 3929 2493 2494 2495</route>
			</leg>
			<activity type="h" link="2495" x="-183497.41805914562" y="6126070.215517037" >
			</activity>
		</plan>

	</person>

<!-- ====================================================================== -->

	<person id="108">
		<plan score="109.54281519312023" selected="no">
			<activity type="h" link="3136" x="-183839.08810798693" y="6126318.80638224" end_time="09:00:00" >
			</activity>
			<leg mode="car" dep_time="09:00:00" trav_time="00:00:19">
				<route type="links" start_link="3136" end_link="3144" trav_time="00:00:19" distance="342.9468777935083">3136 2951 3145 3144</route>
			</leg>
			<activity type="h" link="3144" x="-183669.06298573856" y="6126244.02264525" end_time="16:30:00" >
			</activity>
			<leg mode="car" dep_time="16:30:00" trav_time="00:01:20">
				<route type="links" start_link="3144" end_link="3136" trav_time="00:01:20" distance="1224.1780331829427">3144 3146 2946 2947 2948 3135 2949 2950 3137 3136</route>
			</leg>
			<activity type="h" link="3136" x="-183839.08810798693" y="6126318.80638224" >
			</activity>
		</plan>

		<plan score="109.54281519312023" selected="yes">
			<activity type="h" link="3136" x="-183839.08810798693" y="6126318.80638224" end_time="09:00:00" >
			</activity>
			<leg mode="car" dep_time="09:00:00" trav_time="00:20:44">
				<route type="links" start_link="3136" end_link="3144" trav_time="00:20:44" distance="342.9468777935083">3136 2951 3145 3144</route>
			</leg>
			<activity type="h" link="3144" x="-183669.06298573856" y="6126244.02264525" end_time="16:30:00" >
			</activity>
			<leg mode="car" dep_time="16:30:00" trav_time="00:01:24">
				<route type="links" start_link="3144" end_link="3136" trav_time="00:01:24" distance="1224.1780331829427">3144 3146 2946 2947 2948 3135 2949 2950 3137 3136</route>
			</leg>
			<activity type="h" link="3136" x="-183839.08810798693" y="6126318.80638224" >
			</activity>
		</plan>

	</person>

<!-- ====================================================================== -->

	<person id="109">
		<plan score="110.26713162561866" selected="no">
			<activity type="h" link="3136" x="-183839.08810798693" y="6126318.80638224" end_time="09:00:00" >
			</activity>
			<leg mode="car" dep_time="09:00:00" trav_time="00:00:19">
				<route type="links" start_link="3136" end_link="3144" trav_time="00:00:19" distance="342.9468777935083">3136 2951 3145 3144</route>
			</leg>
			<activity type="h" link="3144" x="-183669.06298573856" y="6126244.02264525" end_time="16:30:00" >
			</activity>
			<leg mode="car" dep_time="16:30:00" trav_time="00:01:20">
				<route type="links" start_link="3144" end_link="3136" trav_time="00:01:20" distance="1224.1780331829427">3144 3146 2946 2947 2948 3135 2949 2950 3137 3136</route>
			</leg>
			<activity type="h" link="3136" x="-183839.08810798693" y="6126318.80638224" >
			</activity>
		</plan>

		<plan score="110.47614825208477" selected="no">
			<activity type="h" link="3136" x="-183839.08810798693" y="6126318.80638224" end_time="09:00:00" >
			</activity>
			<leg mode="car" dep_time="09:00:00" trav_time="00:21:38">
				<route type="links" start_link="3136" end_link="3144" trav_time="00:21:38" distance="342.9468777935083">3136 2951 3145 3144</route>
			</leg>
			<activity type="h" link="3144" x="-183669.06298573856" y="6126244.02264525" end_time="16:30:00" >
			</activity>
			<leg mode="car" dep_time="16:30:00" trav_time="00:01:24">
				<route type="links" start_link="3144" end_link="3136" trav_time="00:01:24" distance="1224.1780331829427">3144 3146 2946 2947 2948 3135 2949 2950 3137 3136</route>
			</leg>
			<activity type="h" link="3136" x="-183839.08810798693" y="6126318.80638224" >
			</activity>
		</plan>

		<plan score="110.47614825208477" selected="yes">
			<activity type="h" link="3136" x="-183839.08810798693" y="6126318.80638224" end_time="09:00:00" >
			</activity>
			<leg mode="car" dep_time="09:00:00" trav_time="00:22:10">
				<route type="links" start_link="3136" end_link="3144" trav_time="00:22:10" distance="342.9468777935083">3136 2951 3145 3144</route>
			</leg>
			<activity type="h" link="3144" x="-183669.06298573856" y="6126244.02264525" end_time="16:30:00" >
			</activity>
			<leg mode="car" dep_time="16:30:00" trav_time="00:01:24">
				<route type="links" start_link="3144" end_link="3136" trav_time="00:01:24" distance="1224.1780331829427">3144 3146 2946 2947 2948 3135 2949 2950 3137 3136</route>
			</leg>
			<activity type="h" link="3136" x="-183839.08810798693" y="6126318.80638224" >
			</activity>
		</plan>

	</person>

<!-- ====================================================================== -->

	<person id="11">
		<plan score="118.01201060311857" selected="yes">
			<activity type="h" link="3855" x="-181130.4874084175" y="6126447.368895479" end_time="10:16:00" >
			</activity>
			<leg mode="car" dep_time="10:16:00" trav_time="00:01:47">
				<route type="links" start_link="3855" end_link="3018" trav_time="00:01:47" distance="1212.7602665986071">3855 3856 3854 3852 3850 1732 1730 1728 1726 1724 3579 3577 3585 3323 1594 1595 1596 1597 3112 3113 2684 2689 2671 2673 2675 3018</route>
			</leg>
			<activity type="h" link="3018" x="-182137.82189331047" y="6126450.632694716" end_time="15:52:00" >
			</activity>
			<leg mode="car" dep_time="15:52:00" trav_time="00:01:24">
				<route type="links" start_link="3018" end_link="3855" trav_time="00:01:24" distance="1237.06031707435">3018 3019 2676 2674 2688 2683 2685 3110 3111 2817 3324 3584 3576 3578 1723 1725 1727 1729 1731 3849 3851 3853 3855</route>
			</leg>
			<activity type="h" link="3855" x="-181130.4874084175" y="6126447.368895479" >
			</activity>
		</plan>

	</person>

<!-- ====================================================================== -->

	<person id="110">
		<plan score="113.5854728061925" selected="no">
			<activity type="h" link="3136" x="-183839.08810798693" y="6126318.80638224" end_time="08:00:00" >
			</activity>
			<leg mode="car" dep_time="08:00:00" trav_time="00:00:19">
				<route type="links" start_link="3136" end_link="3144" trav_time="00:00:19" distance="342.9468777935083">3136 2951 3145 3144</route>
			</leg>
			<activity type="h" link="3144" x="-183669.06298573856" y="6126244.02264525" end_time="17:30:00" >
			</activity>
			<leg mode="car" dep_time="17:30:00" trav_time="00:01:20">
				<route type="links" start_link="3144" end_link="3136" trav_time="00:01:20" distance="1224.1780331829427">3144 3146 2946 2947 2948 3135 2949 2950 3137 3136</route>
			</leg>
			<activity type="h" link="3136" x="-183839.08810798693" y="6126318.80638224" >
			</activity>
		</plan>

		<plan score="113.55829273489294" selected="yes">
			<activity type="h" link="3136" x="-183839.08810798693" y="6126318.80638224" end_time="08:00:00" >
			</activity>
			<leg mode="car" dep_time="08:00:00" trav_time="00:13:46">
				<route type="links" start_link="3136" end_link="3144" trav_time="00:13:46" distance="342.9468777935083">3136 2951 3145 3144</route>
			</leg>
			<activity type="h" link="3144" x="-183669.06298573856" y="6126244.02264525" end_time="17:30:00" >
			</activity>
			<leg mode="car" dep_time="17:30:00" trav_time="00:01:24">
				<route type="links" start_link="3144" end_link="3136" trav_time="00:01:24" distance="1224.1780331829427">3144 3146 2946 2947 2948 3135 2949 2950 3137 3136</route>
			</leg>
			<activity type="h" link="3136" x="-183839.08810798693" y="6126318.80638224" >
			</activity>
		</plan>

	</person>

<!-- ====================================================================== -->

	<person id="111">
		<plan score="114.67532615891841" selected="no">
			<activity type="h" link="3136" x="-183839.08810798693" y="6126318.80638224" end_time="08:00:00" >
			</activity>
			<leg mode="car" dep_time="08:00:00" trav_time="00:00:19">
				<route type="links" start_link="3136" end_link="3144" trav_time="00:00:19" distance="342.9468777935083">3136 2951 3145 3144</route>
			</leg>
			<activity type="h" link="3144" x="-183669.06298573856" y="6126244.02264525" end_time="17:30:00" >
			</activity>
			<leg mode="car" dep_time="17:30:00" trav_time="00:01:20">
				<route type="links" start_link="3144" end_link="3136" trav_time="00:01:20" distance="1224.1780331829427">3144 3146 2946 2947 2948 3135 2949 2950 3137 3136</route>
			</leg>
			<activity type="h" link="3136" x="-183839.08810798693" y="6126318.80638224" >
			</activity>
		</plan>

		<plan score="114.64544313231806" selected="yes">
			<activity type="h" link="3136" x="-183839.08810798693" y="6126318.80638224" end_time="08:00:00" >
			</activity>
			<leg mode="car" dep_time="08:00:00" trav_time="00:13:46">
				<route type="links" start_link="3136" end_link="3144" trav_time="00:13:46" distance="342.9468777935083">3136 2951 3145 3144</route>
			</leg>
			<activity type="h" link="3144" x="-183669.06298573856" y="6126244.02264525" end_time="17:30:00" >
			</activity>
			<leg mode="car" dep_time="17:30:00" trav_time="00:01:24">
				<route type="links" start_link="3144" end_link="3136" trav_time="00:01:24" distance="1224.1780331829427">3144 3146 2946 2947 2948 3135 2949 2950 3137 3136</route>
			</leg>
			<activity type="h" link="3136" x="-183839.08810798693" y="6126318.80638224" >
			</activity>
		</plan>

	</person>

<!-- ====================================================================== -->

	<person id="112">
		<plan score="115.57702084254854" selected="no">
			<activity type="h" link="3136" x="-183839.08810798693" y="6126318.80638224" end_time="08:00:00" >
			</activity>
			<leg mode="car" dep_time="08:00:00" trav_time="00:00:19">
				<route type="links" start_link="3136" end_link="3144" trav_time="00:00:19" distance="342.9468777935083">3136 2951 3145 3144</route>
			</leg>
			<activity type="h" link="3144" x="-183669.06298573856" y="6126244.02264525" end_time="17:30:00" >
			</activity>
			<leg mode="car" dep_time="17:30:00" trav_time="00:01:20">
				<route type="links" start_link="3144" end_link="3136" trav_time="00:01:20" distance="1224.1780331829427">3144 3146 2946 2947 2948 3135 2949 2950 3137 3136</route>
			</leg>
			<activity type="h" link="3136" x="-183839.08810798693" y="6126318.80638224" >
			</activity>
		</plan>

		<plan score="115.57702084254854" selected="yes">
			<activity type="h" link="3136" x="-183839.08810798693" y="6126318.80638224" end_time="08:00:00" >
			</activity>
			<leg mode="car" dep_time="08:00:00" trav_time="00:14:07">
				<route type="links" start_link="3136" end_link="3144" trav_time="00:14:07" distance="342.9468777935083">3136 2951 3145 3144</route>
			</leg>
			<activity type="h" link="3144" x="-183669.06298573856" y="6126244.02264525" end_time="17:30:00" >
			</activity>
			<leg mode="car" dep_time="17:30:00" trav_time="00:01:24">
				<route type="links" start_link="3144" end_link="3136" trav_time="00:01:24" distance="1224.1780331829427">3144 3146 2946 2947 2948 3135 2949 2950 3137 3136</route>
			</leg>
			<activity type="h" link="3136" x="-183839.08810798693" y="6126318.80638224" >
			</activity>
		</plan>

	</person>

<!-- ====================================================================== -->

	<person id="113">
		<plan score="116.40871152917053" selected="no">
			<activity type="h" link="3136" x="-183839.08810798693" y="6126318.80638224" end_time="10:21:00" >
			</activity>
			<leg mode="car" dep_time="10:21:00" trav_time="00:01:36">
				<route type="links" start_link="3136" end_link="3212" trav_time="00:01:36" distance="1211.7620014687632">3136 2951 3146 2946 2947 1554 2953 3379 3186 3188 3495 3497 3212</route>
			</leg>
			<activity type="h" link="3212" x="-183102.38983100204" y="6126392.256204114" end_time="15:44:00" >
			</activity>
			<leg mode="car" dep_time="15:44:00" trav_time="00:02:11">
				<route type="links" start_link="3212" end_link="3136" trav_time="00:02:11" distance="1512.7296407002752">3212 2693 3500 3498 3496 3189 3187 3380 3378 3061 1598 1604 2949 2950 3137 3136</route>
			</leg>
			<activity type="h" link="3136" x="-183839.08810798693" y="6126318.80638224" >
			</activity>
		</plan>

		<plan score="116.1963408152374" selected="yes">
			<activity type="h" link="3136" x="-183839.08810798693" y="6126318.80638224" end_time="10:21:00" >
			</activity>
			<leg mode="car" dep_time="10:21:00" trav_time="00:01:42">
				<route type="links" start_link="3136" end_link="3212" trav_time="00:01:42" distance="1211.7620014687632">3136 2951 3146 2946 2947 1554 2953 3379 3186 3188 3495 3497 3212</route>
			</leg>
			<activity type="h" link="3212" x="-183102.38983100204" y="6126392.256204114" end_time="15:44:00" >
			</activity>
			<leg mode="car" dep_time="15:44:00" trav_time="00:02:34">
				<route type="links" start_link="3212" end_link="3136" trav_time="00:02:34" distance="1512.7296407002752">3212 2693 3500 3498 3496 3189 3187 3380 3378 3061 1598 1604 2949 2950 3137 3136</route>
			</leg>
			<activity type="h" link="3136" x="-183839.08810798693" y="6126318.80638224" >
			</activity>
		</plan>

	</person>

<!-- ====================================================================== -->

	<person id="114">
		<plan score="117.88362178818171" selected="yes">
			<activity type="h" link="3136" x="-183839.08810798693" y="6126318.80638224" end_time="10:51:00" >
			</activity>
			<leg mode="car" dep_time="10:51:00" trav_time="00:02:14">
				<route type="links" start_link="3136" end_link="3018" trav_time="00:02:14" distance="2043.7666119354408">3136 2951 2476 3928 3930 3932 3934 3936 2336 2337 2338 2347 2902 3783 3775 3773 3769 3770 3771 3772 2312 2372 3602 2235 1992 3878 2340 3880 1989 2807 3919 2817 1594 1595 1596 1597 3112 3113 2684 2689 2671 2673 2675 3018</route>
			</leg>
			<activity type="h" link="3018" x="-182137.82189331047" y="6126450.632694716" end_time="16:31:00" >
			</activity>
			<leg mode="car" dep_time="16:31:00" trav_time="00:03:17">
				<route type="links" start_link="3018" end_link="3136" trav_time="00:03:17" distance="2605.9323023017428">3018 3019 2676 2674 2672 2690 2687 3366 3364 3362 3360 3358 3356 2438 2440 2430 2414 2412 2424 2422 2427 2407 2409 2399 2434 2435 2426 1966 1964 1962 1599 1601 3059 3060 3061 1598 1604 2949 2950 3137 3136</route>
			</leg>
			<activity type="h" link="3136" x="-183839.08810798693" y="6126318.80638224" >
			</activity>
		</plan>

	</person>

<!-- ====================================================================== -->

	<person id="115">
		<plan score="113.05185802166457" selected="yes">
			<activity type="h" link="3136" x="-183839.08810798693" y="6126318.80638224" end_time="10:45:00" >
			</activity>
			<leg mode="car" dep_time="10:45:00" trav_time="00:01:36">
				<route type="links" start_link="3136" end_link="3212" trav_time="00:01:36" distance="1211.7620014687632">3136 2951 3146 2946 2947 1554 2953 3379 3186 3188 3495 3497 3212</route>
			</leg>
			<activity type="h" link="3212" x="-183102.38983100204" y="6126392.256204114" end_time="15:38:00" >
			</activity>
			<leg mode="car" dep_time="15:38:00" trav_time="00:02:11">
				<route type="links" start_link="3212" end_link="3136" trav_time="00:02:11" distance="1512.7296407002752">3212 2693 3500 3498 3496 3189 3187 3380 3378 3061 1598 1604 2949 2950 3137 3136</route>
			</leg>
			<activity type="h" link="3136" x="-183839.08810798693" y="6126318.80638224" >
			</activity>
		</plan>

	</person>

<!-- ====================================================================== -->

	<person id="116">
		<plan score="128.79551761672448" selected="no">
			<activity type="h" link="3136" x="-183839.08810798693" y="6126318.80638224" end_time="08:27:00" >
			</activity>
			<leg mode="car" dep_time="08:27:00" trav_time="00:01:08">
				<route type="links" start_link="3136" end_link="3569" trav_time="00:01:08" distance="1055.8852746789657">3136 2951 2476 3928 3930 3932 3934 3936 2336 2337 2338 2347 3752 3768 3569</route>
			</leg>
			<activity type="h" link="3569" x="-182602.90011961438" y="6125167.238166925" end_time="18:00:00" >
			</activity>
			<leg mode="car" dep_time="18:00:00" trav_time="00:02:15">
				<route type="links" start_link="3569" end_link="3136" trav_time="00:02:15" distance="2090.107911045573">3569 3751 3757 3774 3758 3766 3779 3765 2313 2314 2315 2316 3937 3935 3933 3931 3929 2493 2494 2495 2946 2947 2948 3135 2949 2950 3137 3136</route>
			</leg>
			<activity type="h" link="3136" x="-183839.08810798693" y="6126318.80638224" >
			</activity>
		</plan>

		<plan score="129.12928632414898" selected="no">
			<activity type="h" link="3136" x="-183839.08810798693" y="6126318.80638224" end_time="08:27:00" >
			</activity>
			<leg mode="car" dep_time="08:27:00" trav_time="00:10:11">
				<route type="links" start_link="3136" end_link="3569" trav_time="00:10:11" distance="1880.142993927313">3136 2951 3146 2946 2947 1554 2953 3379 3186 3188 3495 3497 3499 3501 3503 3028 3030 3032 3034 3036 3038 3040 2647 3756 3780 3778 3777 3776 3784 3768 3569</route>
			</leg>
			<activity type="h" link="3569" x="-182602.90011961438" y="6125167.238166925" end_time="18:00:00" >
			</activity>
			<leg mode="car" dep_time="18:00:00" trav_time="00:02:55">
				<route type="links" start_link="3569" end_link="3136" trav_time="00:02:55" distance="2090.107911045573">3569 3751 3757 3774 3758 3766 3779 3765 2313 2314 2315 2316 3937 3935 3933 3931 3929 2493 2494 2495 2946 2947 2948 3135 2949 2950 3137 3136</route>
			</leg>
			<activity type="h" link="3136" x="-183839.08810798693" y="6126318.80638224" >
			</activity>
		</plan>

		<plan score="129.35152580900578" selected="no">
			<activity type="h" link="3136" x="-183839.08810798693" y="6126318.80638224" end_time="08:27:00" >
			</activity>
			<leg mode="car" dep_time="08:27:00" trav_time="00:14:47">
				<route type="links" start_link="3136" end_link="3569" trav_time="00:14:47" distance="1880.142993927313">3136 2951 3146 2946 2947 1554 2953 3379 3186 3188 3495 3497 3499 3501 3503 3028 3030 3032 3034 3036 3038 3040 2647 3756 3780 3778 3777 3776 3784 3768 3569</route>
			</leg>
			<activity type="h" link="3569" x="-182602.90011961438" y="6125167.238166925" end_time="18:00:00" >
			</activity>
			<leg mode="car" dep_time="18:00:00" trav_time="00:02:55">
				<route type="links" start_link="3569" end_link="3136" trav_time="00:02:55" distance="2090.107911045573">3569 3751 3757 3774 3758 3766 3779 3765 2313 2314 2315 2316 3937 3935 3933 3931 3929 2493 2494 2495 2946 2947 2948 3135 2949 2950 3137 3136</route>
			</leg>
			<activity type="h" link="3136" x="-183839.08810798693" y="6126318.80638224" >
			</activity>
		</plan>

		<plan score="129.01190533783725" selected="yes">
			<activity type="h" link="3136" x="-183839.08810798693" y="6126318.80638224" end_time="08:27:00" >
			</activity>
			<leg mode="car" dep_time="08:27:00" trav_time="00:15:21">
				<route type="links" start_link="3136" end_link="3569" trav_time="00:15:21" distance="1880.142993927313">3136 2951 3146 2946 2947 1554 2953 3379 3186 3188 3495 3497 3499 3501 3503 3028 3030 3032 3034 3036 3038 3040 2647 3756 3780 3778 3777 3776 3784 3768 3569</route>
			</leg>
			<activity type="h" link="3569" x="-182602.90011961438" y="6125167.238166925" end_time="18:00:00" >
			</activity>
			<leg mode="car" dep_time="18:00:00" trav_time="00:02:55">
				<route type="links" start_link="3569" end_link="3136" trav_time="00:02:55" distance="2090.107911045573">3569 3751 3757 3774 3758 3766 3779 3765 2313 2314 2315 2316 3937 3935 3933 3931 3929 2493 2494 2495 2946 2947 2948 3135 2949 2950 3137 3136</route>
			</leg>
			<activity type="h" link="3136" x="-183839.08810798693" y="6126318.80638224" >
			</activity>
		</plan>

	</person>

<!-- ====================================================================== -->

	<person id="117">
		<plan score="124.70773414010094" selected="yes">
			<activity type="h" link="3136" x="-183839.08810798693" y="6126318.80638224" end_time="08:48:00" >
			</activity>
			<leg mode="car" dep_time="08:48:00" trav_time="00:01:08">
				<route type="links" start_link="3136" end_link="3569" trav_time="00:01:08" distance="1055.8852746789657">3136 2951 2476 3928 3930 3932 3934 3936 2336 2337 2338 2347 3752 3768 3569</route>
			</leg>
			<activity type="h" link="3569" x="-182602.90011961438" y="6125167.238166925" end_time="18:05:00" >
			</activity>
			<leg mode="car" dep_time="18:05:00" trav_time="00:02:15">
				<route type="links" start_link="3569" end_link="3136" trav_time="00:02:15" distance="2090.107911045573">3569 3751 3757 3774 3758 3766 3779 3765 2313 2314 2315 2316 3937 3935 3933 3931 3929 2493 2494 2495 2946 2947 2948 3135 2949 2950 3137 3136</route>
			</leg>
			<activity type="h" link="3136" x="-183839.08810798693" y="6126318.80638224" >
			</activity>
		</plan>

	</person>

<!-- ====================================================================== -->

	<person id="118">
		<plan score="100.30259085136674" selected="yes">
			<activity type="h" link="3136" x="-183839.08810798693" y="6126318.80638224" end_time="08:28:00" >
			</activity>
			<leg mode="car" dep_time="08:28:00" trav_time="00:01:08">
				<route type="links" start_link="3136" end_link="3569" trav_time="00:01:08" distance="1055.8852746789657">3136 2951 2476 3928 3930 3932 3934 3936 2336 2337 2338 2347 3752 3768 3569</route>
			</leg>
			<activity type="h" link="3569" x="-182602.90011961438" y="6125167.238166925" end_time="18:47:00" >
			</activity>
			<leg mode="car" dep_time="18:47:00" trav_time="00:02:15">
				<route type="links" start_link="3569" end_link="3136" trav_time="00:02:15" distance="2090.107911045573">3569 3751 3757 3774 3758 3766 3779 3765 2313 2314 2315 2316 3937 3935 3933 3931 3929 2493 2494 2495 2946 2947 2948 3135 2949 2950 3137 3136</route>
			</leg>
			<activity type="h" link="3136" x="-183839.08810798693" y="6126318.80638224" >
			</activity>
		</plan>

	</person>

<!-- ====================================================================== -->

	<person id="119">
		<plan score="110.1737047980842" selected="no">
			<activity type="h" link="3136" x="-183839.08810798693" y="6126318.80638224" end_time="08:07:00" >
			</activity>
			<leg mode="car" dep_time="08:07:00" trav_time="00:01:08">
				<route type="links" start_link="3136" end_link="3569" trav_time="00:01:08" distance="1055.8852746789657">3136 2951 2476 3928 3930 3932 3934 3936 2336 2337 2338 2347 3752 3768 3569</route>
			</leg>
			<activity type="h" link="3569" x="-182602.90011961438" y="6125167.238166925" end_time="18:35:00" >
			</activity>
			<leg mode="car" dep_time="18:35:00" trav_time="00:02:15">
				<route type="links" start_link="3569" end_link="3136" trav_time="00:02:15" distance="2090.107911045573">3569 3751 3757 3774 3758 3766 3779 3765 2313 2314 2315 2316 3937 3935 3933 3931 3929 2493 2494 2495 2946 2947 2948 3135 2949 2950 3137 3136</route>
			</leg>
			<activity type="h" link="3136" x="-183839.08810798693" y="6126318.80638224" >
			</activity>
		</plan>

		<plan score="110.05875786518304" selected="yes">
			<activity type="h" link="3136" x="-183839.08810798693" y="6126318.80638224" end_time="08:07:00" >
			</activity>
			<leg mode="car" dep_time="08:07:00" trav_time="00:05:08">
				<route type="links" start_link="3136" end_link="3569" trav_time="00:05:08" distance="1055.8852746789657">3136 2951 2476 3928 3930 3932 3934 3936 2336 2337 2338 2347 3752 3768 3569</route>
			</leg>
			<activity type="h" link="3569" x="-182602.90011961438" y="6125167.238166925" end_time="18:35:00" >
			</activity>
			<leg mode="car" dep_time="18:35:00" trav_time="00:02:42">
				<route type="links" start_link="3569" end_link="3136" trav_time="00:02:42" distance="2106.168185159798">3569 3751 3757 3774 3764 3763 3761 3760 3755 3765 2313 2314 2315 2316 3937 3935 3933 3931 3929 2493 2494 2495 2946 2947 2948 3135 2949 2950 3137 3136</route>
			</leg>
			<activity type="h" link="3136" x="-183839.08810798693" y="6126318.80638224" >
			</activity>
		</plan>

	</person>

<!-- ====================================================================== -->

	<person id="12">
		<plan score="116.26696624127676" selected="no">
			<activity type="h" link="3855" x="-181130.4874084175" y="6126447.368895479" end_time="10:15:00" >
			</activity>
			<leg mode="car" dep_time="10:15:00" trav_time="00:01:47">
				<route type="links" start_link="3855" end_link="3018" trav_time="00:01:47" distance="1212.7602665986071">3855 3856 3854 3852 3850 1732 1730 1728 1726 1724 3579 3577 3585 3323 1594 1595 1596 1597 3112 3113 2684 2689 2671 2673 2675 3018</route>
			</leg>
			<activity type="h" link="3018" x="-182137.82189331047" y="6126450.632694716" end_time="15:34:00" >
			</activity>
			<leg mode="car" dep_time="15:34:00" trav_time="00:01:24">
				<route type="links" start_link="3018" end_link="3855" trav_time="00:01:24" distance="1237.06031707435">3018 3019 2676 2674 2688 2683 2685 3110 3111 2817 3324 3584 3576 3578 1723 1725 1727 1729 1731 3849 3851 3853 3855</route>
			</leg>
			<activity type="h" link="3855" x="-181130.4874084175" y="6126447.368895479" >
			</activity>
		</plan>

		<plan score="116.23762420157047" selected="yes">
			<activity type="h" link="3855" x="-181130.4874084175" y="6126447.368895479" end_time="10:15:00" >
			</activity>
			<leg mode="car" dep_time="10:15:00" trav_time="00:02:13">
				<route type="links" start_link="3855" end_link="3018" trav_time="00:02:13" distance="1275.1149150051617">3855 3856 3854 3852 3850 1732 1773 1775 3582 3574 3585 3323 1594 1595 1596 1597 3112 3113 2684 2689 2671 2673 2675 3018</route>
			</leg>
			<activity type="h" link="3018" x="-182137.82189331047" y="6126450.632694716" end_time="15:34:00" >
			</activity>
			<leg mode="car" dep_time="15:34:00" trav_time="00:01:42">
				<route type="links" start_link="3018" end_link="3855" trav_time="00:01:42" distance="1237.06031707435">3018 3019 2676 2674 2688 2683 2685 3110 3111 2817 3324 3584 3576 3578 1723 1725 1727 1729 1731 3849 3851 3853 3855</route>
			</leg>
			<activity type="h" link="3855" x="-181130.4874084175" y="6126447.368895479" >
			</activity>
		</plan>

	</person>

<!-- ====================================================================== -->

	<person id="120">
		<plan score="110.18590150859941" selected="yes">
			<activity type="h" link="3136" x="-183839.08810798693" y="6126318.80638224" end_time="08:55:00" >
			</activity>
			<leg mode="car" dep_time="08:55:00" trav_time="00:01:08">
				<route type="links" start_link="3136" end_link="3569" trav_time="00:01:08" distance="1055.8852746789657">3136 2951 2476 3928 3930 3932 3934 3936 2336 2337 2338 2347 3752 3768 3569</route>
			</leg>
			<activity type="h" link="3569" x="-182602.90011961438" y="6125167.238166925" end_time="18:31:00" >
			</activity>
			<leg mode="car" dep_time="18:31:00" trav_time="00:02:15">
				<route type="links" start_link="3569" end_link="3136" trav_time="00:02:15" distance="2090.107911045573">3569 3751 3757 3774 3758 3766 3779 3765 2313 2314 2315 2316 3937 3935 3933 3931 3929 2493 2494 2495 2946 2947 2948 3135 2949 2950 3137 3136</route>
			</leg>
			<activity type="h" link="3136" x="-183839.08810798693" y="6126318.80638224" >
			</activity>
		</plan>

	</person>

<!-- ====================================================================== -->

	<person id="121">
		<plan score="125.43261517323691" selected="yes">
			<activity type="h" link="3136" x="-183839.08810798693" y="6126318.80638224" end_time="08:07:00" >
			</activity>
			<leg mode="car" dep_time="08:07:00" trav_time="00:01:08">
				<route type="links" start_link="3136" end_link="3569" trav_time="00:01:08" distance="1055.8852746789657">3136 2951 2476 3928 3930 3932 3934 3936 2336 2337 2338 2347 3752 3768 3569</route>
			</leg>
			<activity type="h" link="3569" x="-182602.90011961438" y="6125167.238166925" end_time="18:14:00" >
			</activity>
			<leg mode="car" dep_time="18:14:00" trav_time="00:02:15">
				<route type="links" start_link="3569" end_link="3136" trav_time="00:02:15" distance="2090.107911045573">3569 3751 3757 3774 3758 3766 3779 3765 2313 2314 2315 2316 3937 3935 3933 3931 3929 2493 2494 2495 2946 2947 2948 3135 2949 2950 3137 3136</route>
			</leg>
			<activity type="h" link="3136" x="-183839.08810798693" y="6126318.80638224" >
			</activity>
		</plan>

	</person>

<!-- ====================================================================== -->

	<person id="122">
		<plan score="104.18259877047598" selected="yes">
			<activity type="h" link="3136" x="-183839.08810798693" y="6126318.80638224" end_time="08:52:00" >
			</activity>
			<leg mode="car" dep_time="08:52:00" trav_time="00:01:08">
				<route type="links" start_link="3136" end_link="3569" trav_time="00:01:08" distance="1055.8852746789657">3136 2951 2476 3928 3930 3932 3934 3936 2336 2337 2338 2347 3752 3768 3569</route>
			</leg>
			<activity type="h" link="3569" x="-182602.90011961438" y="6125167.238166925" end_time="18:41:00" >
			</activity>
			<leg mode="car" dep_time="18:41:00" trav_time="00:02:15">
				<route type="links" start_link="3569" end_link="3136" trav_time="00:02:15" distance="2090.107911045573">3569 3751 3757 3774 3758 3766 3779 3765 2313 2314 2315 2316 3937 3935 3933 3931 3929 2493 2494 2495 2946 2947 2948 3135 2949 2950 3137 3136</route>
			</leg>
			<activity type="h" link="3136" x="-183839.08810798693" y="6126318.80638224" >
			</activity>
		</plan>

	</person>

<!-- ====================================================================== -->

	<person id="123">
		<plan score="96.50801646625409" selected="yes">
			<activity type="h" link="3136" x="-183839.08810798693" y="6126318.80638224" end_time="08:51:00" >
			</activity>
			<leg mode="car" dep_time="08:51:00" trav_time="00:01:08">
				<route type="links" start_link="3136" end_link="3569" trav_time="00:01:08" distance="1055.8852746789657">3136 2951 2476 3928 3930 3932 3934 3936 2336 2337 2338 2347 3752 3768 3569</route>
			</leg>
			<activity type="h" link="3569" x="-182602.90011961438" y="6125167.238166925" end_time="18:55:00" >
			</activity>
			<leg mode="car" dep_time="18:55:00" trav_time="00:02:15">
				<route type="links" start_link="3569" end_link="3136" trav_time="00:02:15" distance="2090.107911045573">3569 3751 3757 3774 3758 3766 3779 3765 2313 2314 2315 2316 3937 3935 3933 3931 3929 2493 2494 2495 2946 2947 2948 3135 2949 2950 3137 3136</route>
			</leg>
			<activity type="h" link="3136" x="-183839.08810798693" y="6126318.80638224" >
			</activity>
		</plan>

	</person>

<!-- ====================================================================== -->

	<person id="124">
		<plan score="109.77376340294435" selected="no">
			<activity type="h" link="3136" x="-183839.08810798693" y="6126318.80638224" end_time="08:26:00" >
			</activity>
			<leg mode="car" dep_time="08:26:00" trav_time="00:01:08">
				<route type="links" start_link="3136" end_link="3569" trav_time="00:01:08" distance="1055.8852746789657">3136 2951 2476 3928 3930 3932 3934 3936 2336 2337 2338 2347 3752 3768 3569</route>
			</leg>
			<activity type="h" link="3569" x="-182602.90011961438" y="6125167.238166925" end_time="18:35:00" >
			</activity>
			<leg mode="car" dep_time="18:35:00" trav_time="00:02:15">
				<route type="links" start_link="3569" end_link="3136" trav_time="00:02:15" distance="2090.107911045573">3569 3751 3757 3774 3758 3766 3779 3765 2313 2314 2315 2316 3937 3935 3933 3931 3929 2493 2494 2495 2946 2947 2948 3135 2949 2950 3137 3136</route>
			</leg>
			<activity type="h" link="3136" x="-183839.08810798693" y="6126318.80638224" >
			</activity>
		</plan>

		<plan score="109.98738097275276" selected="no">
			<activity type="h" link="3136" x="-183839.08810798693" y="6126318.80638224" end_time="08:26:00" >
			</activity>
			<leg mode="car" dep_time="08:26:00" trav_time="00:11:28">
				<route type="links" start_link="3136" end_link="3569" trav_time="00:11:28" distance="1880.142993927313">3136 2951 3146 2946 2947 1554 2953 3379 3186 3188 3495 3497 3499 3501 3503 3028 3030 3032 3034 3036 3038 3040 2647 3756 3780 3778 3777 3776 3784 3768 3569</route>
			</leg>
			<activity type="h" link="3569" x="-182602.90011961438" y="6125167.238166925" end_time="18:35:00" >
			</activity>
			<leg mode="car" dep_time="18:35:00" trav_time="00:02:45">
				<route type="links" start_link="3569" end_link="3136" trav_time="00:02:45" distance="2106.168185159798">3569 3751 3757 3774 3764 3763 3761 3760 3755 3765 2313 2314 2315 2316 3937 3935 3933 3931 3929 2493 2494 2495 2946 2947 2948 3135 2949 2950 3137 3136</route>
			</leg>
			<activity type="h" link="3136" x="-183839.08810798693" y="6126318.80638224" >
			</activity>
		</plan>

		<plan score="109.76530962717445" selected="yes">
			<activity type="h" link="3136" x="-183839.08810798693" y="6126318.80638224" end_time="08:26:00" >
			</activity>
			<leg mode="car" dep_time="08:26:00" trav_time="00:15:00">
				<route type="links" start_link="3136" end_link="3569" trav_time="00:15:00" distance="1880.142993927313">3136 2951 3146 2946 2947 1554 2953 3379 3186 3188 3495 3497 3499 3501 3503 3028 3030 3032 3034 3036 3038 3040 2647 3756 3780 3778 3777 3776 3784 3768 3569</route>
			</leg>
			<activity type="h" link="3569" x="-182602.90011961438" y="6125167.238166925" end_time="18:35:00" >
			</activity>
			<leg mode="car" dep_time="18:35:00" trav_time="00:02:42">
				<route type="links" start_link="3569" end_link="3136" trav_time="00:02:42" distance="2106.168185159798">3569 3751 3757 3774 3764 3763 3761 3760 3755 3765 2313 2314 2315 2316 3937 3935 3933 3931 3929 2493 2494 2495 2946 2947 2948 3135 2949 2950 3137 3136</route>
			</leg>
			<activity type="h" link="3136" x="-183839.08810798693" y="6126318.80638224" >
			</activity>
		</plan>

	</person>

<!-- ====================================================================== -->

	<person id="125">
		<plan score="113.87517586938067" selected="yes">
			<activity type="h" link="3136" x="-183839.08810798693" y="6126318.80638224" end_time="08:39:00" >
			</activity>
			<leg mode="car" dep_time="08:39:00" trav_time="00:01:08">
				<route type="links" start_link="3136" end_link="3569" trav_time="00:01:08" distance="1055.8852746789657">3136 2951 2476 3928 3930 3932 3934 3936 2336 2337 2338 2347 3752 3768 3569</route>
			</leg>
			<activity type="h" link="3569" x="-182602.90011961438" y="6125167.238166925" end_time="18:30:00" >
			</activity>
			<leg mode="car" dep_time="18:30:00" trav_time="00:02:15">
				<route type="links" start_link="3569" end_link="3136" trav_time="00:02:15" distance="2090.107911045573">3569 3751 3757 3774 3758 3766 3779 3765 2313 2314 2315 2316 3937 3935 3933 3931 3929 2493 2494 2495 2946 2947 2948 3135 2949 2950 3137 3136</route>
			</leg>
			<activity type="h" link="3136" x="-183839.08810798693" y="6126318.80638224" >
			</activity>
		</plan>

	</person>

<!-- ====================================================================== -->

	<person id="126">
		<plan score="107.29419263317209" selected="no">
			<activity type="h" link="3136" x="-183839.08810798693" y="6126318.80638224" end_time="08:41:00" >
			</activity>
			<leg mode="car" dep_time="08:41:00" trav_time="00:01:08">
				<route type="links" start_link="3136" end_link="3569" trav_time="00:01:08" distance="1055.8852746789657">3136 2951 2476 3928 3930 3932 3934 3936 2336 2337 2338 2347 3752 3768 3569</route>
			</leg>
			<activity type="h" link="3569" x="-182602.90011961438" y="6125167.238166925" end_time="18:37:00" >
			</activity>
			<leg mode="car" dep_time="18:37:00" trav_time="00:02:15">
				<route type="links" start_link="3569" end_link="3136" trav_time="00:02:15" distance="2090.107911045573">3569 3751 3757 3774 3758 3766 3779 3765 2313 2314 2315 2316 3937 3935 3933 3931 3929 2493 2494 2495 2946 2947 2948 3135 2949 2950 3137 3136</route>
			</leg>
			<activity type="h" link="3136" x="-183839.08810798693" y="6126318.80638224" >
			</activity>
		</plan>

		<plan score="106.95015557705187" selected="yes">
			<activity type="h" link="3136" x="-183839.08810798693" y="6126318.80638224" end_time="08:41:00" >
			</activity>
			<leg mode="car" dep_time="08:41:00" trav_time="00:14:48">
				<route type="links" start_link="3136" end_link="3569" trav_time="00:14:48" distance="1880.142993927313">3136 2951 3146 2946 2947 1554 2953 3379 3186 3188 3495 3497 3499 3501 3503 3028 3030 3032 3034 3036 3038 3040 2647 3756 3780 3778 3777 3776 3784 3768 3569</route>
			</leg>
			<activity type="h" link="3569" x="-182602.90011961438" y="6125167.238166925" end_time="18:37:00" >
			</activity>
			<leg mode="car" dep_time="18:37:00" trav_time="00:02:42">
				<route type="links" start_link="3569" end_link="3136" trav_time="00:02:42" distance="2106.168185159798">3569 3751 3757 3774 3764 3763 3761 3760 3755 3765 2313 2314 2315 2316 3937 3935 3933 3931 3929 2493 2494 2495 2946 2947 2948 3135 2949 2950 3137 3136</route>
			</leg>
			<activity type="h" link="3136" x="-183839.08810798693" y="6126318.80638224" >
			</activity>
		</plan>

	</person>

<!-- ====================================================================== -->

	<person id="127">
		<plan score="107.7550106375532" selected="no">
			<activity type="h" link="3136" x="-183839.08810798693" y="6126318.80638224" end_time="11:22:00" >
			</activity>
			<leg mode="car" dep_time="11:22:00" trav_time="00:02:32">
				<route type="links" start_link="3136" end_link="1860" trav_time="00:02:32" distance="2161.323085289908">3136 2951 2476 3928 3930 3932 3934 3936 2336 2337 2338 2347 2902 3783 3775 3773 3769 3770 3771 3772 2312 2372 3602 2235 1992 3873 3875 3284 3101 1886 1890 1892 1894 3103 3941 3254 3256 3283 3943 1858 1860</route>
			</leg>
			<activity type="h" link="1860" x="-181117.81140456753" y="6125189.377313704" end_time="15:42:00" >
			</activity>
			<leg mode="car" dep_time="15:42:00" trav_time="00:05:18">
				<route type="links" start_link="1860" end_link="3136" trav_time="00:05:18" distance="3814.365804618662">1860 1861 1859 3944 3945 3946 3947 3948 2289 2290 2291 3949 3273 3282 3952 3953 3954 3940 3260 3262 1592 3950 3951 3100 3861 3879 2339 1984 1990 1991 2373 2380 2381 2382 3782 3759 3781 3765 2313 2314 2315 2316 3937 3935 3933 3931 3929 2493 2494 2495 2946 2947 2948 3135 2949 2950 3137 3136</route>
			</leg>
			<activity type="h" link="3136" x="-183839.08810798693" y="6126318.80638224" >
			</activity>
		</plan>

		<plan score="107.7550106375532" selected="yes">
			<activity type="h" link="3136" x="-183839.08810798693" y="6126318.80638224" end_time="11:22:00" >
			</activity>
			<leg mode="car" dep_time="11:22:00" trav_time="00:03:06">
				<route type="links" start_link="3136" end_link="1860" trav_time="00:03:06" distance="2161.323085289908">3136 2951 2476 3928 3930 3932 3934 3936 2336 2337 2338 2347 2902 3783 3775 3773 3769 3770 3771 3772 2312 2372 3602 2235 1992 3873 3875 3284 3101 1886 1890 1892 1894 3103 3941 3254 3256 3283 3943 1858 1860</route>
			</leg>
			<activity type="h" link="1860" x="-181117.81140456753" y="6125189.377313704" end_time="15:42:00" >
			</activity>
			<leg mode="car" dep_time="15:42:00" trav_time="00:06:00">
				<route type="links" start_link="1860" end_link="3136" trav_time="00:06:00" distance="3821.9348263912625">1860 1861 1859 3944 3945 3946 3947 3948 2289 2290 2291 3949 3273 3282 3952 3953 3954 3940 3260 3262 1592 3950 3951 3100 3861 3879 2339 1984 1990 1991 2373 2380 2381 2382 3754 3762 3766 3779 3765 2313 2314 2315 2316 3937 3935 3933 3931 3929 2493 2494 2495 2946 2947 2948 3135 2949 2950 3137 3136</route>
			</leg>
			<activity type="h" link="3136" x="-183839.08810798693" y="6126318.80638224" >
			</activity>
		</plan>

	</person>

<!-- ====================================================================== -->

	<person id="128">
		<plan score="99.60705587115223" selected="yes">
			<activity type="h" link="3136" x="-183839.08810798693" y="6126318.80638224" end_time="08:45:00" >
			</activity>
			<leg mode="car" dep_time="08:45:00" trav_time="00:03:13">
				<route type="links" start_link="3136" end_link="4055" trav_time="00:03:13" distance="2546.2277148503067">3136 2951 2476 3928 3930 3932 3934 3936 2336 2337 2338 2347 2902 3783 3775 3773 3769 3770 3771 3772 2312 2372 3602 2235 1992 3878 2340 3880 1989 2807 3919 2817 3324 3322 3318 3316 3314 3320 3846 3476 3480 3478 3084 3086 3088 4011 4056 4055</route>
			</leg>
			<activity type="h" link="4055" x="-181781.38888069193" y="6127108.636571161" end_time="18:57:00" >
			</activity>
			<leg mode="car" dep_time="18:57:00" trav_time="00:03:22">
				<route type="links" start_link="4055" end_link="3136" trav_time="00:03:22" distance="2686.9347899207523">4055 4010 3090 3092 3640 2970 2968 2871 2956 2958 1928 2419 2427 2407 2409 2399 2434 2435 2426 1966 1964 1962 1599 1601 3059 3060 3061 1598 1604 2949 2950 3137 3136</route>
			</leg>
			<activity type="h" link="3136" x="-183839.08810798693" y="6126318.80638224" >
			</activity>
		</plan>

	</person>

<!-- ====================================================================== -->

	<person id="129">
		<plan score="102.74273059347556" selected="no">
			<activity type="h" link="3136" x="-183839.08810798693" y="6126318.80638224" end_time="08:08:00" >
			</activity>
			<leg mode="car" dep_time="08:08:00" trav_time="00:03:13">
				<route type="links" start_link="3136" end_link="4055" trav_time="00:03:13" distance="2546.2277148503067">3136 2951 2476 3928 3930 3932 3934 3936 2336 2337 2338 2347 2902 3783 3775 3773 3769 3770 3771 3772 2312 2372 3602 2235 1992 3878 2340 3880 1989 2807 3919 2817 3324 3322 3318 3316 3314 3320 3846 3476 3480 3478 3084 3086 3088 4011 4056 4055</route>
			</leg>
			<activity type="h" link="4055" x="-181781.38888069193" y="6127108.636571161" end_time="13:20:00" >
			</activity>
			<leg mode="car" dep_time="13:20:00" trav_time="00:03:22">
				<route type="links" start_link="4055" end_link="3136" trav_time="00:03:22" distance="2686.9347899207523">4055 4010 3090 3092 3640 2970 2968 2871 2956 2958 1928 2419 2427 2407 2409 2399 2434 2435 2426 1966 1964 1962 1599 1601 3059 3060 3061 1598 1604 2949 2950 3137 3136</route>
			</leg>
			<activity type="h" link="3136" x="-183839.08810798693" y="6126318.80638224" >
			</activity>
		</plan>

		<plan score="108.62769758682451" selected="yes">
			<activity type="h" link="3136" x="-183839.08810798693" y="6126318.80638224" end_time="08:08:00" >
			</activity>
			<leg mode="car" dep_time="08:08:00" trav_time="00:07:28">
				<route type="links" start_link="3136" end_link="4055" trav_time="00:07:28" distance="2645.790339670944">3136 2951 2476 2882 1900 1394 3930 3932 3934 3936 2336 2337 2338 2347 2902 3783 3775 3773 3769 3770 3771 3772 2312 2372 3602 2235 1992 3873 3875 3871 3861 1989 2807 3919 2817 3324 3322 3318 3316 3314 3320 3846 3476 3480 3334 3332 4059 4061 3990 4053 4055</route>
			</leg>
			<activity type="h" link="4055" x="-181781.38888069193" y="6127108.636571161" end_time="13:20:00" >
			</activity>
			<leg mode="car" dep_time="13:20:00" trav_time="00:03:37">
				<route type="links" start_link="4055" end_link="3136" trav_time="00:03:37" distance="2686.9347899207523">4055 4010 3090 3092 3640 2970 2968 2871 2956 2958 1928 2419 2427 2407 2409 2399 2434 2435 2426 1966 1964 1962 1599 1601 3059 3060 3061 1598 1604 2949 2950 3137 3136</route>
			</leg>
			<activity type="h" link="3136" x="-183839.08810798693" y="6126318.80638224" >
			</activity>
		</plan>

	</person>

<!-- ====================================================================== -->

	<person id="13">
		<plan score="121.34705287368992" selected="yes">
			<activity type="h" link="3855" x="-181130.4874084175" y="6126447.368895479" end_time="11:38:00" >
			</activity>
			<leg mode="car" dep_time="11:38:00" trav_time="00:01:55">
				<route type="links" start_link="3855" end_link="1860" trav_time="00:01:55" distance="1148.5965237330208">3855 3856 3854 3852 3850 1732 1730 1841 1843 1845 1837 1830 3261 3259 3283 3943 1858 1860</route>
			</leg>
			<activity type="h" link="1860" x="-181117.81140456753" y="6125189.377313704" end_time="18:09:00" >
			</activity>
			<leg mode="car" dep_time="18:09:00" trav_time="00:01:51">
				<route type="links" start_link="1860" end_link="3855" trav_time="00:01:51" distance="1443.2760318517728">1860 1861 1859 3944 3945 3946 3947 3948 2289 2290 2291 3949 3273 3271 1639 1641 1643 1786 1784 1782 1780 3855</route>
			</leg>
			<activity type="h" link="3855" x="-181130.4874084175" y="6126447.368895479" >
			</activity>
		</plan>

	</person>

<!-- ====================================================================== -->

	<person id="130">
		<plan score="110.48368007677693" selected="no">
			<activity type="h" link="2946" x="-183543.22526929493" y="6126366.000772828" end_time="09:00:00" >
			</activity>
			<leg mode="car" dep_time="09:00:00" trav_time="00:00:49">
				<route type="links" start_link="2946" end_link="3144" trav_time="00:00:49" distance="767.253127975835">2946 2947 2948 3135 2949 2950 2951 3145 3144</route>
			</leg>
			<activity type="h" link="3144" x="-183669.06298573856" y="6126244.02264525" end_time="16:30:00" >
			</activity>
			<leg mode="car" dep_time="16:30:00" trav_time="00:00:00">
				<route type="links" start_link="3144" end_link="2946" trav_time="00:00:00" distance="187.55949443879925">3144 3146 2946</route>
			</leg>
			<activity type="h" link="2946" x="-183543.22526929493" y="6126366.000772828" >
			</activity>
		</plan>

		<plan score="109.85438539403026" selected="yes">
			<activity type="h" link="2946" x="-183543.22526929493" y="6126366.000772828" end_time="09:00:00" >
			</activity>
			<leg mode="car" dep_time="09:00:00" trav_time="00:22:46">
				<route type="links" start_link="2946" end_link="3144" trav_time="00:22:46" distance="767.253127975835">2946 2947 2948 3135 2949 2950 2951 3145 3144</route>
			</leg>
			<activity type="h" link="3144" x="-183669.06298573856" y="6126244.02264525" end_time="16:30:00" >
			</activity>
			<leg mode="car" dep_time="16:30:00" trav_time="00:00:01">
				<route type="links" start_link="3144" end_link="2946" trav_time="00:00:01" distance="187.55949443879925">3144 3146 2946</route>
			</leg>
			<activity type="h" link="2946" x="-183543.22526929493" y="6126366.000772828" >
			</activity>
		</plan>

	</person>

<!-- ====================================================================== -->

	<person id="131">
		<plan score="114.91840017380403" selected="no">
			<activity type="h" link="2946" x="-183543.22526929493" y="6126366.000772828" end_time="08:00:00" >
			</activity>
			<leg mode="car" dep_time="08:00:00" trav_time="00:00:49">
				<route type="links" start_link="2946" end_link="3144" trav_time="00:00:49" distance="767.253127975835">2946 2947 2948 3135 2949 2950 2951 3145 3144</route>
			</leg>
			<activity type="h" link="3144" x="-183669.06298573856" y="6126244.02264525" end_time="17:30:00" >
			</activity>
			<leg mode="car" dep_time="17:30:00" trav_time="00:00:00">
				<route type="links" start_link="3144" end_link="2946" trav_time="00:00:00" distance="187.55949443879925">3144 3146 2946</route>
			</leg>
			<activity type="h" link="2946" x="-183543.22526929493" y="6126366.000772828" >
			</activity>
		</plan>

		<plan score="114.91840017380403" selected="yes">
			<activity type="h" link="2946" x="-183543.22526929493" y="6126366.000772828" end_time="08:00:00" >
			</activity>
			<leg mode="car" dep_time="08:00:00" trav_time="00:14:51">
				<route type="links" start_link="2946" end_link="3144" trav_time="00:14:51" distance="767.253127975835">2946 2947 2948 3135 2949 2950 2951 3145 3144</route>
			</leg>
			<activity type="h" link="3144" x="-183669.06298573856" y="6126244.02264525" end_time="17:30:00" >
			</activity>
			<leg mode="car" dep_time="17:30:00" trav_time="00:00:01">
				<route type="links" start_link="3144" end_link="2946" trav_time="00:00:01" distance="187.55949443879925">3144 3146 2946</route>
			</leg>
			<activity type="h" link="2946" x="-183543.22526929493" y="6126366.000772828" >
			</activity>
		</plan>

	</person>

<!-- ====================================================================== -->

	<person id="132">
		<plan score="115.21309102205974" selected="no">
			<activity type="h" link="2946" x="-183543.22526929493" y="6126366.000772828" end_time="10:36:00" >
			</activity>
			<leg mode="car" dep_time="10:36:00" trav_time="00:01:09">
				<route type="links" start_link="2946" end_link="3212" trav_time="00:01:09" distance="830.8640360317695">2946 2947 1554 2953 3379 3186 3188 3495 3497 3212</route>
			</leg>
			<activity type="h" link="3212" x="-183102.38983100204" y="6126392.256204114" end_time="15:47:00" >
			</activity>
			<leg mode="car" dep_time="15:47:00" trav_time="00:01:49">
				<route type="links" start_link="3212" end_link="2946" trav_time="00:01:49" distance="1281.3153175754521">3212 2693 3500 3498 3496 3189 3187 3380 3378 3061 1598 1604 2949 2950 2951 3146 2946</route>
			</leg>
			<activity type="h" link="2946" x="-183543.22526929493" y="6126366.000772828" >
			</activity>
		</plan>

		<plan score="115.21309102205974" selected="no">
			<activity type="h" link="2946" x="-183543.22526929493" y="6126366.000772828" end_time="10:36:00" >
			</activity>
			<leg mode="car" dep_time="10:36:00" trav_time="00:01:18">
				<route type="links" start_link="2946" end_link="3212" trav_time="00:01:18" distance="830.8640360317695">2946 2947 1554 2953 3379 3186 3188 3495 3497 3212</route>
			</leg>
			<activity type="h" link="3212" x="-183102.38983100204" y="6126392.256204114" end_time="15:47:00" >
			</activity>
			<leg mode="car" dep_time="15:47:00" trav_time="00:02:00">
				<route type="links" start_link="3212" end_link="2946" trav_time="00:02:00" distance="1281.3153175754521">3212 2693 3500 3498 3496 3189 3187 3380 3378 3061 1598 1604 2949 2950 2951 3146 2946</route>
			</leg>
			<activity type="h" link="2946" x="-183543.22526929493" y="6126366.000772828" >
			</activity>
		</plan>

		<plan score="115.21309102205974" selected="yes">
			<activity type="h" link="2946" x="-183543.22526929493" y="6126366.000772828" end_time="10:36:00" >
			</activity>
			<leg mode="car" dep_time="10:36:00" trav_time="00:01:18">
				<route type="links" start_link="2946" end_link="3212" trav_time="00:01:18" distance="830.8640360317695">2946 2947 1554 2953 3379 3186 3188 3495 3497 3212</route>
			</leg>
			<activity type="h" link="3212" x="-183102.38983100204" y="6126392.256204114" end_time="15:47:00" >
			</activity>
			<leg mode="car" dep_time="15:47:00" trav_time="00:02:00">
				<route type="links" start_link="3212" end_link="2946" trav_time="00:02:00" distance="1281.3153175754521">3212 2693 3500 3498 3496 3189 3187 3380 3378 3061 1598 1604 2949 2950 2951 3146 2946</route>
			</leg>
			<activity type="h" link="2946" x="-183543.22526929493" y="6126366.000772828" >
			</activity>
		</plan>

	</person>

<!-- ====================================================================== -->

	<person id="133">
		<plan score="116.17674571271134" selected="no">
			<activity type="h" link="2946" x="-183543.22526929493" y="6126366.000772828" end_time="10:25:00" >
			</activity>
			<leg mode="car" dep_time="10:25:00" trav_time="00:01:09">
				<route type="links" start_link="2946" end_link="3212" trav_time="00:01:09" distance="830.8640360317695">2946 2947 1554 2953 3379 3186 3188 3495 3497 3212</route>
			</leg>
			<activity type="h" link="3212" x="-183102.38983100204" y="6126392.256204114" end_time="15:43:00" >
			</activity>
			<leg mode="car" dep_time="15:43:00" trav_time="00:01:49">
				<route type="links" start_link="3212" end_link="2946" trav_time="00:01:49" distance="1281.3153175754521">3212 2693 3500 3498 3496 3189 3187 3380 3378 3061 1598 1604 2949 2950 2951 3146 2946</route>
			</leg>
			<activity type="h" link="2946" x="-183543.22526929493" y="6126366.000772828" >
			</activity>
		</plan>

		<plan score="116.15995032686804" selected="yes">
			<activity type="h" link="2946" x="-183543.22526929493" y="6126366.000772828" end_time="10:25:00" >
			</activity>
			<leg mode="car" dep_time="10:25:00" trav_time="00:01:14">
				<route type="links" start_link="2946" end_link="3212" trav_time="00:01:14" distance="830.8640360317695">2946 2947 1554 2953 3379 3186 3188 3495 3497 3212</route>
			</leg>
			<activity type="h" link="3212" x="-183102.38983100204" y="6126392.256204114" end_time="15:43:00" >
			</activity>
			<leg mode="car" dep_time="15:43:00" trav_time="00:02:04">
				<route type="links" start_link="3212" end_link="2946" trav_time="00:02:04" distance="1281.3153175754521">3212 2693 3500 3498 3496 3189 3187 3380 3378 3061 1598 1604 2949 2950 2951 3146 2946</route>
			</leg>
			<activity type="h" link="2946" x="-183543.22526929493" y="6126366.000772828" >
			</activity>
		</plan>

	</person>

<!-- ====================================================================== -->

	<person id="134">
		<plan score="116.02100768811503" selected="no">
			<activity type="h" link="2946" x="-183543.22526929493" y="6126366.000772828" end_time="10:23:00" >
			</activity>
			<leg mode="car" dep_time="10:23:00" trav_time="00:01:09">
				<route type="links" start_link="2946" end_link="3212" trav_time="00:01:09" distance="830.8640360317695">2946 2947 1554 2953 3379 3186 3188 3495 3497 3212</route>
			</leg>
			<activity type="h" link="3212" x="-183102.38983100204" y="6126392.256204114" end_time="15:40:00" >
			</activity>
			<leg mode="car" dep_time="15:40:00" trav_time="00:01:49">
				<route type="links" start_link="3212" end_link="2946" trav_time="00:01:49" distance="1281.3153175754521">3212 2693 3500 3498 3496 3189 3187 3380 3378 3061 1598 1604 2949 2950 2951 3146 2946</route>
			</leg>
			<activity type="h" link="2946" x="-183543.22526929493" y="6126366.000772828" >
			</activity>
		</plan>

		<plan score="116.02100768811503" selected="no">
[...]
			</activity>
			<leg mode="car" dep_time="08:20:00" trav_time="00:02:42">
				<route type="links" start_link="1438" end_link="4055" trav_time="00:02:42" distance="1702.3512736189718">1438 1440 2899 2895 2901 2471 2472 2881 2474 2879 2877 2875 2394 2392 2873 2410 2408 2406 2428 2423 2411 2413 2415 2431 2959 2957 2870 2969 3641 3093 3091 4011 4056 4055</route>
			</leg>
			<activity type="h" link="4055" x="-181781.38888069193" y="6127108.636571161" end_time="18:54:00" >
			</activity>
			<leg mode="car" dep_time="18:54:00" trav_time="00:02:36">
				<route type="links" start_link="4055" end_link="1438" trav_time="00:02:36" distance="1873.6894972406349">4055 4010 3090 3092 3640 2970 2968 2871 2956 2958 1928 2419 2427 2407 2872 2391 2393 2874 2876 2878 2470 2888 2896 2900 1441 1439 1438</route>
			</leg>
			<activity type="h" link="1438" x="-183226.29180391473" y="6128235.331479394" >
			</activity>
		</plan>

		<plan score="95.23949085742365" selected="yes">
			<activity type="h" link="1438" x="-183226.29180391473" y="6128235.331479394" end_time="08:20:00" >
			</activity>
			<leg mode="car" dep_time="08:20:00" trav_time="00:09:31">
				<route type="links" start_link="1438" end_link="4055" trav_time="00:09:31" distance="4373.217674635331">1438 1440 2899 2894 2892 2890 2888 2901 2471 2472 3002 3003 3004 3005 2847 2849 2851 2853 2855 3709 3711 3713 3053 3727 1668 3805 1664 3733 3735 2955 1602 1600 1961 1963 1965 2425 2432 2433 2403 2428 2422 2420 2418 2431 2959 2957 2870 2968 2966 2964 2962 2802 2334 2335 2868 2341 2343 2345 3487 2861 3572 2960 2352 2354 3094 2803 2805 2827 2829 2831 2833 2835 2837 2839 2980 2981 2479 1958 2990 2993 1960 3481 3841 3477 3334 3332 4059 4061 4063 4065 4067 4069 4071 3991 4047 4049 4051 4053 4055</route>
			</leg>
			<activity type="h" link="4055" x="-181781.38888069193" y="6127108.636571161" end_time="18:54:00" >
			</activity>
			<leg mode="car" dep_time="18:54:00" trav_time="00:02:54">
				<route type="links" start_link="4055" end_link="1438" trav_time="00:02:54" distance="1873.6894972406349">4055 4010 3090 3092 3640 2970 2968 2871 2956 2958 1928 2419 2427 2407 2872 2391 2393 2874 2876 2878 2470 2888 2896 2900 1441 1439 1438</route>
			</leg>
			<activity type="h" link="1438" x="-183226.29180391473" y="6128235.331479394" >
			</activity>
		</plan>

	</person>

<!-- ====================================================================== -->

	<person id="918">
		<plan score="106.16349180152076" selected="yes">
			<activity type="h" link="1438" x="-183226.29180391473" y="6128235.331479394" end_time="08:00:00" >
			</activity>
			<leg mode="car" dep_time="08:00:00" trav_time="00:02:42">
				<route type="links" start_link="1438" end_link="4055" trav_time="00:02:42" distance="1702.3512736189718">1438 1440 2899 2895 2901 2471 2472 2881 2474 2879 2877 2875 2394 2392 2873 2410 2408 2406 2428 2423 2411 2413 2415 2431 2959 2957 2870 2969 3641 3093 3091 4011 4056 4055</route>
			</leg>
			<activity type="h" link="4055" x="-181781.38888069193" y="6127108.636571161" end_time="18:55:00" >
			</activity>
			<leg mode="car" dep_time="18:55:00" trav_time="00:02:36">
				<route type="links" start_link="4055" end_link="1438" trav_time="00:02:36" distance="1873.6894972406349">4055 4010 3090 3092 3640 2970 2968 2871 2956 2958 1928 2419 2427 2407 2872 2391 2393 2874 2876 2878 2470 2888 2896 2900 1441 1439 1438</route>
			</leg>
			<activity type="h" link="1438" x="-183226.29180391473" y="6128235.331479394" >
			</activity>
		</plan>

	</person>

<!-- ====================================================================== -->

	<person id="919">
		<plan score="114.85838280389706" selected="yes">
			<activity type="h" link="1438" x="-183226.29180391473" y="6128235.331479394" end_time="08:41:00" >
			</activity>
			<leg mode="car" dep_time="08:41:00" trav_time="00:02:42">
				<route type="links" start_link="1438" end_link="4055" trav_time="00:02:42" distance="1702.3512736189718">1438 1440 2899 2895 2901 2471 2472 2881 2474 2879 2877 2875 2394 2392 2873 2410 2408 2406 2428 2423 2411 2413 2415 2431 2959 2957 2870 2969 3641 3093 3091 4011 4056 4055</route>
			</leg>
			<activity type="h" link="4055" x="-181781.38888069193" y="6127108.636571161" end_time="18:05:00" >
			</activity>
			<leg mode="car" dep_time="18:05:00" trav_time="00:02:36">
				<route type="links" start_link="4055" end_link="1438" trav_time="00:02:36" distance="1873.6894972406349">4055 4010 3090 3092 3640 2970 2968 2871 2956 2958 1928 2419 2427 2407 2872 2391 2393 2874 2876 2878 2470 2888 2896 2900 1441 1439 1438</route>
			</leg>
			<activity type="h" link="1438" x="-183226.29180391473" y="6128235.331479394" >
			</activity>
		</plan>

	</person>

<!-- ====================================================================== -->

	<person id="92">
		<plan score="126.106067573065" selected="yes">
			<activity type="h" link="2495" x="-183497.41805914562" y="6126070.215517037" end_time="08:00:00" >
			</activity>
			<leg mode="car" dep_time="08:00:00" trav_time="00:00:05">
				<route type="links" start_link="2495" end_link="3144" trav_time="00:00:05" distance="159.24485353735218">2495 3147 3145 3144</route>
			</leg>
			<activity type="h" link="3144" x="-183669.06298573856" y="6126244.02264525" end_time="17:30:00" >
			</activity>
			<leg mode="car" dep_time="17:30:00" trav_time="00:00:23">
				<route type="links" start_link="3144" end_link="2495" trav_time="00:00:23" distance="374.7848388561357">3144 2476 2493 2494 2495</route>
			</leg>
			<activity type="h" link="2495" x="-183497.41805914562" y="6126070.215517037" >
			</activity>
		</plan>

	</person>

<!-- ====================================================================== -->

	<person id="93">
		<plan score="125.50931099447737" selected="yes">
			<activity type="h" link="2495" x="-183497.41805914562" y="6126070.215517037" end_time="11:26:00" >
			</activity>
			<leg mode="car" dep_time="11:26:00" trav_time="00:01:42">
				<route type="links" start_link="2495" end_link="2705" trav_time="00:01:42" distance="1089.3916861152502">2495 2946 2947 1554 2953 3379 3186 1586 1588 1590 3219 3217 3215 1582 2711 2713 2705</route>
			</leg>
			<activity type="h" link="2705" x="-182880.39500855454" y="6126848.802102781" end_time="18:35:00" >
			</activity>
			<leg mode="car" dep_time="18:35:00" trav_time="00:01:56">
				<route type="links" start_link="2705" end_link="2495" trav_time="00:01:56" distance="1354.6046808215813">2705 1911 1909 1907 3216 3218 1591 1589 1587 3187 3380 3378 3061 1598 1604 2949 2950 2951 2476 2493 2494 2495</route>
			</leg>
			<activity type="h" link="2495" x="-183497.41805914562" y="6126070.215517037" >
			</activity>
		</plan>

	</person>

<!-- ====================================================================== -->

	<person id="94">
		<plan score="117.23571797363023" selected="no">
			<activity type="h" link="2495" x="-183497.41805914562" y="6126070.215517037" end_time="10:04:00" >
			</activity>
			<leg mode="car" dep_time="10:04:00" trav_time="00:01:22">
				<route type="links" start_link="2495" end_link="3212" trav_time="00:01:22" distance="1008.7870837285304">2495 2946 2947 1554 2953 3379 3186 3188 3495 3497 3212</route>
			</leg>
			<activity type="h" link="3212" x="-183102.38983100204" y="6126392.256204114" end_time="15:32:00" >
			</activity>
			<leg mode="car" dep_time="15:32:00" trav_time="00:01:59">
				<route type="links" start_link="3212" end_link="2495" trav_time="00:01:59" distance="1393.0178037619353">3212 2693 3501 3503 3028 3030 3032 3034 3036 3038 3040 2647 3756 3781 3765 2313 2314 2315 2316 3937 3935 3933 3931 3929 2493 2494 2495</route>
			</leg>
			<activity type="h" link="2495" x="-183497.41805914562" y="6126070.215517037" >
			</activity>
		</plan>

		<plan score="117.23571797363023" selected="no">
			<activity type="h" link="2495" x="-183497.41805914562" y="6126070.215517037" end_time="10:04:00" >
			</activity>
			<leg mode="car" dep_time="10:04:00" trav_time="00:01:35">
				<route type="links" start_link="2495" end_link="3212" trav_time="00:01:35" distance="1008.7870837285304">2495 2946 2947 1554 2953 3379 3186 3188 3495 3497 3212</route>
			</leg>
			<activity type="h" link="3212" x="-183102.38983100204" y="6126392.256204114" end_time="15:32:00" >
			</activity>
			<leg mode="car" dep_time="15:32:00" trav_time="00:02:09">
				<route type="links" start_link="3212" end_link="2495" trav_time="00:02:09" distance="1390.2733643418314">3212 2693 3501 3503 3028 3030 3032 3034 3036 3038 3040 2647 3755 3765 2313 2314 2315 2316 3937 3935 3933 3931 3929 2493 2494 2495</route>
			</leg>
			<activity type="h" link="2495" x="-183497.41805914562" y="6126070.215517037" >
			</activity>
		</plan>

		<plan score="117.23571797363023" selected="yes">
			<activity type="h" link="2495" x="-183497.41805914562" y="6126070.215517037" end_time="10:04:00" >
			</activity>
			<leg mode="car" dep_time="10:04:00" trav_time="00:01:43">
				<route type="links" start_link="2495" end_link="3212" trav_time="00:01:43" distance="1008.7870837285304">2495 2946 2947 1554 2953 3379 3186 3188 3495 3497 3212</route>
			</leg>
			<activity type="h" link="3212" x="-183102.38983100204" y="6126392.256204114" end_time="15:32:00" >
			</activity>
			<leg mode="car" dep_time="15:32:00" trav_time="00:02:09">
				<route type="links" start_link="3212" end_link="2495" trav_time="00:02:09" distance="1393.0178037619353">3212 2693 3501 3503 3028 3030 3032 3034 3036 3038 3040 2647 3756 3781 3765 2313 2314 2315 2316 3937 3935 3933 3931 3929 2493 2494 2495</route>
			</leg>
			<activity type="h" link="2495" x="-183497.41805914562" y="6126070.215517037" >
			</activity>
		</plan>

	</person>

<!-- ====================================================================== -->

	<person id="95">
		<plan score="111.08497087328564" selected="no">
			<activity type="h" link="2495" x="-183497.41805914562" y="6126070.215517037" end_time="10:34:00" >
			</activity>
			<leg mode="car" dep_time="10:34:00" trav_time="00:01:22">
				<route type="links" start_link="2495" end_link="3212" trav_time="00:01:22" distance="1008.7870837285304">2495 2946 2947 1554 2953 3379 3186 3188 3495 3497 3212</route>
			</leg>
			<activity type="h" link="3212" x="-183102.38983100204" y="6126392.256204114" end_time="15:11:00" >
			</activity>
			<leg mode="car" dep_time="15:11:00" trav_time="00:01:59">
				<route type="links" start_link="3212" end_link="2495" trav_time="00:01:59" distance="1393.0178037619353">3212 2693 3501 3503 3028 3030 3032 3034 3036 3038 3040 2647 3756 3781 3765 2313 2314 2315 2316 3937 3935 3933 3931 3929 2493 2494 2495</route>
			</leg>
			<activity type="h" link="2495" x="-183497.41805914562" y="6126070.215517037" >
			</activity>
		</plan>

		<plan score="111.08497087328564" selected="yes">
			<activity type="h" link="2495" x="-183497.41805914562" y="6126070.215517037" end_time="10:34:00" >
			</activity>
			<leg mode="car" dep_time="10:34:00" trav_time="00:01:31">
				<route type="links" start_link="2495" end_link="3212" trav_time="00:01:31" distance="1008.7870837285304">2495 2946 2947 1554 2953 3379 3186 3188 3495 3497 3212</route>
			</leg>
			<activity type="h" link="3212" x="-183102.38983100204" y="6126392.256204114" end_time="15:11:00" >
			</activity>
			<leg mode="car" dep_time="15:11:00" trav_time="00:02:21">
				<route type="links" start_link="3212" end_link="2495" trav_time="00:02:21" distance="1390.2733643418314">3212 2693 3501 3503 3028 3030 3032 3034 3036 3038 3040 2647 3755 3765 2313 2314 2315 2316 3937 3935 3933 3931 3929 2493 2494 2495</route>
			</leg>
			<activity type="h" link="2495" x="-183497.41805914562" y="6126070.215517037" >
			</activity>
		</plan>

	</person>

<!-- ====================================================================== -->

	<person id="96">
		<plan score="100.35654398777865" selected="yes">
			<activity type="h" link="2495" x="-183497.41805914562" y="6126070.215517037" end_time="08:25:00" >
			</activity>
			<leg mode="car" dep_time="08:25:00" trav_time="00:00:54">
				<route type="links" start_link="2495" end_link="3569" trav_time="00:00:54" distance="872.1832504228097">2495 3147 2476 3928 3930 3932 3934 3936 2336 2337 2338 2347 3752 3768 3569</route>
			</leg>
			<activity type="h" link="3569" x="-182602.90011961438" y="6125167.238166925" end_time="18:50:00" >
			</activity>
			<leg mode="car" dep_time="18:50:00" trav_time="00:00:52">
				<route type="links" start_link="3569" end_link="2495" trav_time="00:00:52" distance="875.5663246046688">3569 3751 3757 3774 3758 3766 3779 3765 2313 2314 2315 2316 3937 3935 3933 3931 3929 2493 2494 2495</route>
			</leg>
			<activity type="h" link="2495" x="-183497.41805914562" y="6126070.215517037" >
			</activity>
		</plan>

	</person>

<!-- ====================================================================== -->

	<person id="97">
		<plan score="109.52745646627667" selected="no">
			<activity type="h" link="2495" x="-183497.41805914562" y="6126070.215517037" end_time="08:24:00" >
			</activity>
			<leg mode="car" dep_time="08:24:00" trav_time="00:00:54">
				<route type="links" start_link="2495" end_link="3569" trav_time="00:00:54" distance="872.1832504228097">2495 3147 2476 3928 3930 3932 3934 3936 2336 2337 2338 2347 3752 3768 3569</route>
			</leg>
			<activity type="h" link="3569" x="-182602.90011961438" y="6125167.238166925" end_time="18:32:00" >
			</activity>
			<leg mode="car" dep_time="18:32:00" trav_time="00:00:52">
				<route type="links" start_link="3569" end_link="2495" trav_time="00:00:52" distance="875.5663246046688">3569 3751 3757 3774 3758 3766 3779 3765 2313 2314 2315 2316 3937 3935 3933 3931 3929 2493 2494 2495</route>
			</leg>
			<activity type="h" link="2495" x="-183497.41805914562" y="6126070.215517037" >
			</activity>
		</plan>

		<plan score="112.8272376260447" selected="no">
			<activity type="h" link="2495" x="-183497.41805914562" y="6126070.215517037" end_time="08:24:00" >
			</activity>
			<leg mode="car" dep_time="08:24:00" trav_time="00:04:02">
				<route type="links" start_link="2495" end_link="3569" trav_time="00:04:02" distance="1677.1680761870803">2495 2946 2947 1554 2953 3379 3186 3188 3495 3497 3499 3501 3503 3028 3030 3032 3034 3036 3038 3040 2647 3756 3780 3778 3777 3776 3784 3768 3569</route>
			</leg>
			<activity type="h" link="3569" x="-182602.90011961438" y="6125167.238166925" end_time="18:32:00" >
			</activity>
			<leg mode="car" dep_time="18:32:00" trav_time="00:01:12">
				<route type="links" start_link="3569" end_link="2495" trav_time="00:01:12" distance="891.626598718894">3569 3751 3757 3774 3764 3763 3761 3760 3755 3765 2313 2314 2315 2316 3937 3935 3933 3931 3929 2493 2494 2495</route>
			</leg>
			<activity type="h" link="2495" x="-183497.41805914562" y="6126070.215517037" >
			</activity>
		</plan>

		<plan score="111.37799839908888" selected="no">
			<activity type="h" link="2495" x="-183497.41805914562" y="6126070.215517037" end_time="08:24:00" >
			</activity>
			<leg mode="car" dep_time="08:24:00" trav_time="00:05:50">
				<route type="links" start_link="2495" end_link="3569" trav_time="00:05:50" distance="1048.0395422804997">2495 3148 3150 3152 3154 3156 2886 2884 2013 1517 3656 3936 2336 2337 2338 2347 3752 3768 3569</route>
			</leg>
			<activity type="h" link="3569" x="-182602.90011961438" y="6125167.238166925" end_time="18:32:00" >
			</activity>
			<leg mode="car" dep_time="18:32:00" trav_time="00:01:09">
				<route type="links" start_link="3569" end_link="2495" trav_time="00:01:09" distance="891.626598718894">3569 3751 3757 3774 3764 3763 3761 3760 3755 3765 2313 2314 2315 2316 3937 3935 3933 3931 3929 2493 2494 2495</route>
			</leg>
			<activity type="h" link="2495" x="-183497.41805914562" y="6126070.215517037" >
			</activity>
		</plan>

		<plan score="112.23896810958087" selected="yes">
			<activity type="h" link="2495" x="-183497.41805914562" y="6126070.215517037" end_time="08:24:00" >
			</activity>
			<leg mode="car" dep_time="08:24:00" trav_time="00:07:13">
				<route type="links" start_link="2495" end_link="3569" trav_time="00:07:13" distance="1053.3492164264123">2495 3148 3150 3152 3154 3156 2886 2884 2013 1517 3656 3936 2336 2337 2338 2347 2902 3784 3768 3569</route>
			</leg>
			<activity type="h" link="3569" x="-182602.90011961438" y="6125167.238166925" end_time="18:32:00" >
			</activity>
			<leg mode="car" dep_time="18:32:00" trav_time="00:01:09">
				<route type="links" start_link="3569" end_link="2495" trav_time="00:01:09" distance="891.626598718894">3569 3751 3757 3774 3764 3763 3761 3760 3755 3765 2313 2314 2315 2316 3937 3935 3933 3931 3929 2493 2494 2495</route>
			</leg>
			<activity type="h" link="2495" x="-183497.41805914562" y="6126070.215517037" >
			</activity>
		</plan>

	</person>

<!-- ====================================================================== -->

	<person id="98">
		<plan score="119.42102866580186" selected="yes">
			<activity type="h" link="2495" x="-183497.41805914562" y="6126070.215517037" end_time="11:07:00" >
			</activity>
			<leg mode="car" dep_time="11:07:00" trav_time="00:00:54">
				<route type="links" start_link="2495" end_link="3569" trav_time="00:00:54" distance="872.1832504228097">2495 3147 2476 3928 3930 3932 3934 3936 2336 2337 2338 2347 3752 3768 3569</route>
			</leg>
			<activity type="h" link="3569" x="-182602.90011961438" y="6125167.238166925" end_time="16:53:00" >
			</activity>
			<leg mode="car" dep_time="16:53:00" trav_time="00:00:52">
				<route type="links" start_link="3569" end_link="2495" trav_time="00:00:52" distance="875.5663246046688">3569 3751 3757 3774 3758 3766 3779 3765 2313 2314 2315 2316 3937 3935 3933 3931 3929 2493 2494 2495</route>
			</leg>
			<activity type="h" link="2495" x="-183497.41805914562" y="6126070.215517037" >
			</activity>
		</plan>

	</person>

<!-- ====================================================================== -->

	<person id="99">
		<plan score="118.35582138909885" selected="no">
			<activity type="h" link="2495" x="-183497.41805914562" y="6126070.215517037" end_time="08:39:00" >
			</activity>
			<leg mode="car" dep_time="08:39:00" trav_time="00:00:54">
				<route type="links" start_link="2495" end_link="3569" trav_time="00:00:54" distance="872.1832504228097">2495 3147 2476 3928 3930 3932 3934 3936 2336 2337 2338 2347 3752 3768 3569</route>
			</leg>
			<activity type="h" link="3569" x="-182602.90011961438" y="6125167.238166925" end_time="18:24:00" >
			</activity>
			<leg mode="car" dep_time="18:24:00" trav_time="00:00:52">
				<route type="links" start_link="3569" end_link="2495" trav_time="00:00:52" distance="875.5663246046688">3569 3751 3757 3774 3758 3766 3779 3765 2313 2314 2315 2316 3937 3935 3933 3931 3929 2493 2494 2495</route>
			</leg>
			<activity type="h" link="2495" x="-183497.41805914562" y="6126070.215517037" >
			</activity>
		</plan>

		<plan score="118.85109849264887" selected="yes">
			<activity type="h" link="2495" x="-183497.41805914562" y="6126070.215517037" end_time="08:39:00" >
			</activity>
			<leg mode="car" dep_time="08:39:00" trav_time="00:09:26">
				<route type="links" start_link="2495" end_link="3569" trav_time="00:09:26" distance="1053.3492164264123">2495 3148 3150 3152 3154 3156 2886 2884 2013 1517 3656 3936 2336 2337 2338 2347 2902 3784 3768 3569</route>
			</leg>
			<activity type="h" link="3569" x="-182602.90011961438" y="6125167.238166925" end_time="18:24:00" >
			</activity>
			<leg mode="car" dep_time="18:24:00" trav_time="00:01:04">
				<route type="links" start_link="3569" end_link="2495" trav_time="00:01:04" distance="891.626598718894">3569 3751 3757 3774 3764 3763 3761 3760 3755 3765 2313 2314 2315 2316 3937 3935 3933 3931 3929 2493 2494 2495</route>
			</leg>
			<activity type="h" link="2495" x="-183497.41805914562" y="6126070.215517037" >
			</activity>
		</plan>

	</person>

<!-- ====================================================================== -->

</population>
